 ****** HSPICE -- P-2019.06-SP1-1 linux64 (Sep 27 2019) ******                  
  Copyright (c) 1986 - 2019 by Synopsys, Inc. All Rights Reserved.              
  This software and the associated documentation are proprietary
  to Synopsys, Inc. This software may only be used in accordance
  with the terms and conditions of a written license agreement with
  Synopsys, Inc. All other use, reproduction, or distribution of
  this software is strictly prohibited.
  Input File: q3.sp                                                             
  Command line options: /usr/local/Software/Hspice/hspice/P-2019.06-SP1-1/hspice/linux64/hspice -i q3.sp -o q3
  Start time: Thu Nov  7 18:17:19 2019
 lic:  
 lic: FLEXlm: SDK_12.3 
 lic: USER:   EE735_6              HOSTNAME: mcl16 
 lic: HOSTID: "001517a3883c"       PID:      29408 
 lic: Using FLEXlm license file: 
 lic: 27020@mcl16 
 lic: Checkout 1 hspice 
 lic: License/Maintenance for hspice will expire on 14-nov-2019/2019.06 
 lic: 1(in_use)/10(total) FLOATING license(s) on SERVER 27020@mcl16 
 lic:   
 **info** *pvaI* current limit stacksize=10485760, set new limit stacksize=62914560

 **info** *pvaI* Module (simple_mos): 4 unexpanded port, 0 init, 5 behav, 2 contrib, 49/3 expr(s)

 **info** *pvaI*        Has DIS(ST), 0/0 afCount, 0 MT, dlg, IO(0/0/1/0)

 **info** *pvaI*        0 gmdIsThreadSafe (ST)

 **info** *pvaI*        0 const-G and 0 const-C, Has switchBranch, 22 bypassOpt, 0 bus2scalar, 0 vwb

 **info** *pvaI*        set_va_exp = 80 [80.0, 704.0] set by default

 **warning** *pvaW*        variable 'P_EPS' declared but not used in RHS, deleted (q3.va:20)

 **warning** *pvaW*                   To relax this rule, use 'setenv PVA_KEEP_VARS 1' to keep variables for probing.

 **warning** *pvaW*        variable 'PHI' declared but not used in RHS, deleted (q3.va:22)

 **warning** *pvaW*        variable 'COX' declared but not used in RHS, deleted (q3.va:22)

 **info** *pvaI*        port 'b' at 4 declared, but not used

 **info** *pvaI*        generated 0 flow node(s) during compilation.

 **info** *pvaI* #### Total 431 line-size(s), 49/3 expr(s), 2 contr(s), 0 init(s), 5 behav(s), 4 port(s)

 Loading pVA library q3.pvadir/pvaRTL_linux64.so...
1****** HSPICE -- P-2019.06-SP1-1 linux64 (Sep 27 2019) ******                  
 ******  
 *mos

 ****** circuit name directory
 circuit number to circuit name directory
   number circuitname                     definition         multiplier
        0 main circuit
        1 x1.                             simple_mos(va)     1.00 
 **info** *pvaI* Creating VA module (simple_mos) for instance X1 with gmd reduction

 **info** *pvaI*        termCount=4 diwSize=8 probeSize=19 Qsize=0 Isize=1

 End of GMD creation on Thu Nov  7 18:17:21 2019	GTM/In-use: 1.8750/0.4506 MB


  
      
 *****************************************************************
 ******  option summary
 ******
 runlvl  = 3         bypass  = 2.0000    
  Opening plot unit= 15
 file=q3.pa0

 End of pVA setup    on Thu Nov  7 18:17:22 2019	GTM/In-use: 1.8750/0.4845 MB


 Begin of pVA simulation on Thu Nov  7 18:17:22 2019	GTM/In-use: 1.8750/0.4845 MB


 ******
 *mos

 ****** dc transfer curves tnom=  25.000 temp=  25.000 ******
x

 volt         current   
             vd         
    0.          0.      
    1.00000m    0.      
    2.00000m    0.      
    3.00000m    0.      
    4.00000m    0.      
    5.00000m    0.      
    6.00000m    0.      
    7.00000m    0.      
    8.00000m    0.      
    9.00000m    0.      
   10.00000m    0.      
   11.00000m    0.      
   12.00000m    0.      
   13.00000m    0.      
   14.00000m    0.      
   15.00000m    0.      
   16.00000m    0.      
   17.00000m    0.      
   18.00000m    0.      
   19.00000m    0.      
   20.00000m    0.      
   21.00000m    0.      
   22.00000m    0.      
   23.00000m    0.      
   24.00000m    0.      
   25.00000m    0.      
   26.00000m    0.      
   27.00000m    0.      
   28.00000m    0.      
   29.00000m    0.      
   30.00000m    0.      
   31.00000m    0.      
   32.00000m    0.      
   33.00000m    0.      
   34.00000m    0.      
   35.00000m    0.      
   36.00000m    0.      
   37.00000m    0.      
   38.00000m    0.      
   39.00000m    0.      
   40.00000m    0.      
   41.00000m    0.      
   42.00000m    0.      
   43.00000m    0.      
   44.00000m    0.      
   45.00000m    0.      
   46.00000m    0.      
   47.00000m    0.      
   48.00000m    0.      
   49.00000m    0.      
   50.00000m    0.      
   51.00000m    0.      
   52.00000m    0.      
   53.00000m    0.      
   54.00000m    0.      
   55.00000m    0.      
   56.00000m    0.      
   57.00000m    0.      
   58.00000m    0.      
   59.00000m    0.      
   60.00000m    0.      
   61.00000m    0.      
   62.00000m    0.      
   63.00000m    0.      
   64.00000m    0.      
   65.00000m    0.      
   66.00000m    0.      
   67.00000m    0.      
   68.00000m    0.      
   69.00000m    0.      
   70.00000m    0.      
   71.00000m    0.      
   72.00000m    0.      
   73.00000m    0.      
   74.00000m    0.      
   75.00000m    0.      
   76.00000m    0.      
   77.00000m    0.      
   78.00000m    0.      
   79.00000m    0.      
   80.00000m    0.      
   81.00000m    0.      
   82.00000m    0.      
   83.00000m    0.      
   84.00000m    0.      
   85.00000m    0.      
   86.00000m    0.      
   87.00000m    0.      
   88.00000m    0.      
   89.00000m    0.      
   90.00000m    0.      
   91.00000m    0.      
   92.00000m    0.      
   93.00000m    0.      
   94.00000m    0.      
   95.00000m    0.      
   96.00000m    0.      
   97.00000m    0.      
   98.00000m    0.      
   99.00000m    0.      
  100.00000m    0.      
  101.00000m    0.      
  102.00000m    0.      
  103.00000m    0.      
  104.00000m    0.      
  105.00000m    0.      
  106.00000m    0.      
  107.00000m    0.      
  108.00000m    0.      
  109.00000m    0.      
  110.00000m    0.      
  111.00000m    0.      
  112.00000m    0.      
  113.00000m    0.      
  114.00000m    0.      
  115.00000m    0.      
  116.00000m    0.      
  117.00000m    0.      
  118.00000m    0.      
  119.00000m    0.      
  120.00000m    0.      
  121.00000m    0.      
  122.00000m    0.      
  123.00000m    0.      
  124.00000m    0.      
  125.00000m    0.      
  126.00000m    0.      
  127.00000m    0.      
  128.00000m    0.      
  129.00000m    0.      
  130.00000m    0.      
  131.00000m    0.      
  132.00000m    0.      
  133.00000m    0.      
  134.00000m    0.      
  135.00000m    0.      
  136.00000m    0.      
  137.00000m    0.      
  138.00000m    0.      
  139.00000m    0.      
  140.00000m    0.      
  141.00000m    0.      
  142.00000m    0.      
  143.00000m    0.      
  144.00000m    0.      
  145.00000m    0.      
  146.00000m    0.      
  147.00000m    0.      
  148.00000m    0.      
  149.00000m    0.      
  150.00000m    0.      
  151.00000m    0.      
  152.00000m    0.      
  153.00000m    0.      
  154.00000m    0.      
  155.00000m    0.      
  156.00000m    0.      
  157.00000m    0.      
  158.00000m    0.      
  159.00000m    0.      
  160.00000m    0.      
  161.00000m    0.      
  162.00000m    0.      
  163.00000m    0.      
  164.00000m    0.      
  165.00000m    0.      
  166.00000m    0.      
  167.00000m    0.      
  168.00000m    0.      
  169.00000m    0.      
  170.00000m    0.      
  171.00000m    0.      
  172.00000m    0.      
  173.00000m    0.      
  174.00000m    0.      
  175.00000m    0.      
  176.00000m    0.      
  177.00000m    0.      
  178.00000m    0.      
  179.00000m    0.      
  180.00000m    0.      
  181.00000m    0.      
  182.00000m    0.      
  183.00000m    0.      
  184.00000m    0.      
  185.00000m    0.      
  186.00000m    0.      
  187.00000m    0.      
  188.00000m    0.      
  189.00000m    0.      
  190.00000m    0.      
  191.00000m    0.      
  192.00000m    0.      
  193.00000m    0.      
  194.00000m    0.      
  195.00000m    0.      
  196.00000m    0.      
  197.00000m    0.      
  198.00000m    0.      
  199.00000m    0.      
  200.00000m    0.      
  201.00000m    0.      
  202.00000m    0.      
  203.00000m    0.      
  204.00000m    0.      
  205.00000m    0.      
  206.00000m    0.      
  207.00000m    0.      
  208.00000m    0.      
  209.00000m    0.      
  210.00000m    0.      
  211.00000m    0.      
  212.00000m    0.      
  213.00000m    0.      
  214.00000m    0.      
  215.00000m    0.      
  216.00000m    0.      
  217.00000m    0.      
  218.00000m    0.      
  219.00000m    0.      
  220.00000m    0.      
  221.00000m    0.      
  222.00000m    0.      
  223.00000m    0.      
  224.00000m    0.      
  225.00000m    0.      
  226.00000m    0.      
  227.00000m    0.      
  228.00000m    0.      
  229.00000m    0.      
  230.00000m    0.      
  231.00000m    0.      
  232.00000m    0.      
  233.00000m    0.      
  234.00000m    0.      
  235.00000m    0.      
  236.00000m    0.      
  237.00000m    0.      
  238.00000m    0.      
  239.00000m    0.      
  240.00000m    0.      
  241.00000m    0.      
  242.00000m    0.      
  243.00000m    0.      
  244.00000m    0.      
  245.00000m    0.      
  246.00000m    0.      
  247.00000m    0.      
  248.00000m    0.      
  249.00000m    0.      
  250.00000m    0.      
  251.00000m    0.      
  252.00000m    0.      
  253.00000m    0.      
  254.00000m    0.      
  255.00000m    0.      
  256.00000m    0.      
  257.00000m    0.      
  258.00000m    0.      
  259.00000m    0.      
  260.00000m    0.      
  261.00000m    0.      
  262.00000m    0.      
  263.00000m    0.      
  264.00000m    0.      
  265.00000m    0.      
  266.00000m    0.      
  267.00000m    0.      
  268.00000m    0.      
  269.00000m    0.      
  270.00000m    0.      
  271.00000m    0.      
  272.00000m    0.      
  273.00000m    0.      
  274.00000m    0.      
  275.00000m    0.      
  276.00000m    0.      
  277.00000m    0.      
  278.00000m    0.      
  279.00000m    0.      
  280.00000m    0.      
  281.00000m    0.      
  282.00000m    0.      
  283.00000m    0.      
  284.00000m    0.      
  285.00000m    0.      
  286.00000m    0.      
  287.00000m    0.      
  288.00000m    0.      
  289.00000m    0.      
  290.00000m    0.      
  291.00000m    0.      
  292.00000m    0.      
  293.00000m    0.      
  294.00000m    0.      
  295.00000m    0.      
  296.00000m    0.      
  297.00000m    0.      
  298.00000m    0.      
  299.00000m    0.      
  300.00000m    0.      
  301.00000m    0.      
  302.00000m    0.      
  303.00000m    0.      
  304.00000m    0.      
  305.00000m    0.      
  306.00000m    0.      
  307.00000m    0.      
  308.00000m    0.      
  309.00000m    0.      
  310.00000m    0.      
  311.00000m    0.      
  312.00000m    0.      
  313.00000m    0.      
  314.00000m    0.      
  315.00000m    0.      
  316.00000m    0.      
  317.00000m    0.      
  318.00000m    0.      
  319.00000m    0.      
  320.00000m    0.      
  321.00000m    0.      
  322.00000m    0.      
  323.00000m    0.      
  324.00000m    0.      
  325.00000m    0.      
  326.00000m    0.      
  327.00000m    0.      
  328.00000m    0.      
  329.00000m    0.      
  330.00000m    0.      
  331.00000m    0.      
  332.00000m    0.      
  333.00000m    0.      
  334.00000m    0.      
  335.00000m    0.      
  336.00000m    0.      
  337.00000m    0.      
  338.00000m    0.      
  339.00000m    0.      
  340.00000m    0.      
  341.00000m    0.      
  342.00000m    0.      
  343.00000m    0.      
  344.00000m    0.      
  345.00000m    0.      
  346.00000m    0.      
  347.00000m    0.      
  348.00000m    0.      
  349.00000m    0.      
  350.00000m    0.      
  351.00000m    0.      
  352.00000m    0.      
  353.00000m    0.      
  354.00000m    0.      
  355.00000m    0.      
  356.00000m    0.      
  357.00000m    0.      
  358.00000m    0.      
  359.00000m    0.      
  360.00000m    0.      
  361.00000m    0.      
  362.00000m    0.      
  363.00000m    0.      
  364.00000m    0.      
  365.00000m    0.      
  366.00000m    0.      
  367.00000m    0.      
  368.00000m    0.      
  369.00000m    0.      
  370.00000m    0.      
  371.00000m    0.      
  372.00000m    0.      
  373.00000m    0.      
  374.00000m    0.      
  375.00000m    0.      
  376.00000m    0.      
  377.00000m    0.      
  378.00000m    0.      
  379.00000m    0.      
  380.00000m    0.      
  381.00000m    0.      
  382.00000m    0.      
  383.00000m    0.      
  384.00000m    0.      
  385.00000m    0.      
  386.00000m    0.      
  387.00000m    0.      
  388.00000m    0.      
  389.00000m    0.      
  390.00000m    0.      
  391.00000m    0.      
  392.00000m    0.      
  393.00000m    0.      
  394.00000m    0.      
  395.00000m    0.      
  396.00000m    0.      
  397.00000m    0.      
  398.00000m    0.      
  399.00000m    0.      
  400.00000m    0.      
  401.00000m    0.      
  402.00000m    0.      
  403.00000m    0.      
  404.00000m    0.      
  405.00000m    0.      
  406.00000m    0.      
  407.00000m    0.      
  408.00000m    0.      
  409.00000m    0.      
  410.00000m    0.      
  411.00000m    0.      
  412.00000m    0.      
  413.00000m    0.      
  414.00000m    0.      
  415.00000m    0.      
  416.00000m    0.      
  417.00000m    0.      
  418.00000m    0.      
  419.00000m    0.      
  420.00000m    0.      
  421.00000m    0.      
  422.00000m    0.      
  423.00000m    0.      
  424.00000m    0.      
  425.00000m    0.      
  426.00000m    0.      
  427.00000m    0.      
  428.00000m    0.      
  429.00000m    0.      
  430.00000m    0.      
  431.00000m    0.      
  432.00000m    0.      
  433.00000m    0.      
  434.00000m    0.      
  435.00000m    0.      
  436.00000m    0.      
  437.00000m    0.      
  438.00000m    0.      
  439.00000m    0.      
  440.00000m    0.      
  441.00000m    0.      
  442.00000m    0.      
  443.00000m    0.      
  444.00000m    0.      
  445.00000m    0.      
  446.00000m    0.      
  447.00000m    0.      
  448.00000m    0.      
  449.00000m    0.      
  450.00000m    0.      
  451.00000m    0.      
  452.00000m    0.      
  453.00000m    0.      
  454.00000m    0.      
  455.00000m    0.      
  456.00000m    0.      
  457.00000m    0.      
  458.00000m    0.      
  459.00000m    0.      
  460.00000m    0.      
  461.00000m    0.      
  462.00000m    0.      
  463.00000m    0.      
  464.00000m    0.      
  465.00000m    0.      
  466.00000m    0.      
  467.00000m    0.      
  468.00000m    0.      
  469.00000m    0.      
  470.00000m    0.      
  471.00000m    0.      
  472.00000m    0.      
  473.00000m    0.      
  474.00000m    0.      
  475.00000m    0.      
  476.00000m    0.      
  477.00000m    0.      
  478.00000m    0.      
  479.00000m    0.      
  480.00000m    0.      
  481.00000m    0.      
  482.00000m    0.      
  483.00000m    0.      
  484.00000m    0.      
  485.00000m    0.      
  486.00000m    0.      
  487.00000m    0.      
  488.00000m    0.      
  489.00000m    0.      
  490.00000m    0.      
  491.00000m    0.      
  492.00000m    0.      
  493.00000m    0.      
  494.00000m    0.      
  495.00000m    0.      
  496.00000m    0.      
  497.00000m    0.      
  498.00000m    0.      
  499.00000m    0.      
  500.00000m    0.      
  501.00000m    0.      
  502.00000m    0.      
  503.00000m    0.      
  504.00000m    0.      
  505.00000m    0.      
  506.00000m    0.      
  507.00000m    0.      
  508.00000m    0.      
  509.00000m    0.      
  510.00000m    0.      
  511.00000m    0.      
  512.00000m    0.      
  513.00000m    0.      
  514.00000m    0.      
  515.00000m    0.      
  516.00000m    0.      
  517.00000m    0.      
  518.00000m    0.      
  519.00000m    0.      
  520.00000m    0.      
  521.00000m    0.      
  522.00000m    0.      
  523.00000m    0.      
  524.00000m    0.      
  525.00000m    0.      
  526.00000m    0.      
  527.00000m    0.      
  528.00000m    0.      
  529.00000m    0.      
  530.00000m    0.      
  531.00000m    0.      
  532.00000m    0.      
  533.00000m    0.      
  534.00000m    0.      
  535.00000m    0.      
  536.00000m    0.      
  537.00000m    0.      
  538.00000m    0.      
  539.00000m    0.      
  540.00000m    0.      
  541.00000m    0.      
  542.00000m    0.      
  543.00000m    0.      
  544.00000m    0.      
  545.00000m    0.      
  546.00000m    0.      
  547.00000m    0.      
  548.00000m    0.      
  549.00000m    0.      
  550.00000m    0.      
  551.00000m    0.      
  552.00000m    0.      
  553.00000m    0.      
  554.00000m    0.      
  555.00000m    0.      
  556.00000m    0.      
  557.00000m    0.      
  558.00000m    0.      
  559.00000m    0.      
  560.00000m    0.      
  561.00000m    0.      
  562.00000m    0.      
  563.00000m    0.      
  564.00000m    0.      
  565.00000m    0.      
  566.00000m    0.      
  567.00000m    0.      
  568.00000m    0.      
  569.00000m    0.      
  570.00000m    0.      
  571.00000m    0.      
  572.00000m    0.      
  573.00000m    0.      
  574.00000m    0.      
  575.00000m    0.      
  576.00000m    0.      
  577.00000m    0.      
  578.00000m    0.      
  579.00000m    0.      
  580.00000m    0.      
  581.00000m    0.      
  582.00000m    0.      
  583.00000m    0.      
  584.00000m    0.      
  585.00000m    0.      
  586.00000m    0.      
  587.00000m    0.      
  588.00000m    0.      
  589.00000m    0.      
  590.00000m    0.      
  591.00000m    0.      
  592.00000m    0.      
  593.00000m    0.      
  594.00000m    0.      
  595.00000m    0.      
  596.00000m    0.      
  597.00000m    0.      
  598.00000m    0.      
  599.00000m    0.      
  600.00000m    0.      
  601.00000m    0.      
  602.00000m    0.      
  603.00000m    0.      
  604.00000m    0.      
  605.00000m    0.      
  606.00000m    0.      
  607.00000m    0.      
  608.00000m    0.      
  609.00000m    0.      
  610.00000m    0.      
  611.00000m    0.      
  612.00000m    0.      
  613.00000m    0.      
  614.00000m    0.      
  615.00000m    0.      
  616.00000m    0.      
  617.00000m    0.      
  618.00000m    0.      
  619.00000m    0.      
  620.00000m    0.      
  621.00000m    0.      
  622.00000m    0.      
  623.00000m    0.      
  624.00000m    0.      
  625.00000m    0.      
  626.00000m    0.      
  627.00000m    0.      
  628.00000m    0.      
  629.00000m    0.      
  630.00000m    0.      
  631.00000m    0.      
  632.00000m    0.      
  633.00000m    0.      
  634.00000m    0.      
  635.00000m    0.      
  636.00000m    0.      
  637.00000m    0.      
  638.00000m    0.      
  639.00000m    0.      
  640.00000m    0.      
  641.00000m    0.      
  642.00000m    0.      
  643.00000m    0.      
  644.00000m    0.      
  645.00000m    0.      
  646.00000m    0.      
  647.00000m    0.      
  648.00000m    0.      
  649.00000m    0.      
  650.00000m    0.      
  651.00000m    0.      
  652.00000m    0.      
  653.00000m    0.      
  654.00000m    0.      
  655.00000m    0.      
  656.00000m    0.      
  657.00000m    0.      
  658.00000m    0.      
  659.00000m    0.      
  660.00000m    0.      
  661.00000m    0.      
  662.00000m    0.      
  663.00000m    0.      
  664.00000m    0.      
  665.00000m    0.      
  666.00000m    0.      
  667.00000m    0.      
  668.00000m    0.      
  669.00000m    0.      
  670.00000m    0.      
  671.00000m    0.      
  672.00000m    0.      
  673.00000m    0.      
  674.00000m    0.      
  675.00000m    0.      
  676.00000m    0.      
  677.00000m    0.      
  678.00000m    0.      
  679.00000m    0.      
  680.00000m    0.      
  681.00000m    0.      
  682.00000m    0.      
  683.00000m    0.      
  684.00000m    0.      
  685.00000m    0.      
  686.00000m    0.      
  687.00000m    0.      
  688.00000m    0.      
  689.00000m    0.      
  690.00000m    0.      
  691.00000m    0.      
  692.00000m    0.      
  693.00000m    0.      
  694.00000m    0.      
  695.00000m    0.      
  696.00000m    0.      
  697.00000m    0.      
  698.00000m    0.      
  699.00000m    0.      
  700.00000m    0.      
  701.00000m    0.      
  702.00000m    0.      
  703.00000m    0.      
  704.00000m    0.      
  705.00000m    0.      
  706.00000m    0.      
  707.00000m    0.      
  708.00000m    0.      
  709.00000m    0.      
  710.00000m    0.      
  711.00000m    0.      
  712.00000m    0.      
  713.00000m    0.      
  714.00000m    0.      
  715.00000m    0.      
  716.00000m    0.      
  717.00000m    0.      
  718.00000m    0.      
  719.00000m    0.      
  720.00000m    0.      
  721.00000m    0.      
  722.00000m    0.      
  723.00000m    0.      
  724.00000m    0.      
  725.00000m    0.      
  726.00000m    0.      
  727.00000m    0.      
  728.00000m    0.      
  729.00000m    0.      
  730.00000m    0.      
  731.00000m    0.      
  732.00000m    0.      
  733.00000m    0.      
  734.00000m    0.      
  735.00000m    0.      
  736.00000m    0.      
  737.00000m    0.      
  738.00000m    0.      
  739.00000m    0.      
  740.00000m    0.      
  741.00000m    0.      
  742.00000m    0.      
  743.00000m    0.      
  744.00000m    0.      
  745.00000m    0.      
  746.00000m    0.      
  747.00000m    0.      
  748.00000m    0.      
  749.00000m    0.      
  750.00000m    0.      
  751.00000m    0.      
  752.00000m    0.      
  753.00000m    0.      
  754.00000m    0.      
  755.00000m    0.      
  756.00000m    0.      
  757.00000m    0.      
  758.00000m    0.      
  759.00000m    0.      
  760.00000m    0.      
  761.00000m    0.      
  762.00000m    0.      
  763.00000m    0.      
  764.00000m    0.      
  765.00000m    0.      
  766.00000m    0.      
  767.00000m    0.      
  768.00000m    0.      
  769.00000m    0.      
  770.00000m    0.      
  771.00000m    0.      
  772.00000m    0.      
  773.00000m    0.      
  774.00000m    0.      
  775.00000m    0.      
  776.00000m    0.      
  777.00000m    0.      
  778.00000m    0.      
  779.00000m    0.      
  780.00000m    0.      
  781.00000m    0.      
  782.00000m    0.      
  783.00000m    0.      
  784.00000m    0.      
  785.00000m    0.      
  786.00000m    0.      
  787.00000m    0.      
  788.00000m    0.      
  789.00000m    0.      
  790.00000m    0.      
  791.00000m    0.      
  792.00000m    0.      
  793.00000m    0.      
  794.00000m    0.      
  795.00000m    0.      
  796.00000m    0.      
  797.00000m    0.      
  798.00000m    0.      
  799.00000m    0.      
  800.00000m    0.      
  801.00000m    0.      
  802.00000m    0.      
  803.00000m    0.      
  804.00000m    0.      
  805.00000m    0.      
  806.00000m    0.      
  807.00000m    0.      
  808.00000m    0.      
  809.00000m    0.      
  810.00000m    0.      
  811.00000m    0.      
  812.00000m    0.      
  813.00000m    0.      
  814.00000m    0.      
  815.00000m    0.      
  816.00000m    0.      
  817.00000m    0.      
  818.00000m    0.      
  819.00000m    0.      
  820.00000m    0.      
  821.00000m    0.      
  822.00000m    0.      
  823.00000m    0.      
  824.00000m    0.      
  825.00000m    0.      
  826.00000m    0.      
  827.00000m    0.      
  828.00000m    0.      
  829.00000m    0.      
  830.00000m    0.      
  831.00000m    0.      
  832.00000m    0.      
  833.00000m    0.      
  834.00000m    0.      
  835.00000m    0.      
  836.00000m    0.      
  837.00000m    0.      
  838.00000m    0.      
  839.00000m    0.      
  840.00000m    0.      
  841.00000m    0.      
  842.00000m    0.      
  843.00000m    0.      
  844.00000m    0.      
  845.00000m    0.      
  846.00000m    0.      
  847.00000m    0.      
  848.00000m    0.      
  849.00000m    0.      
  850.00000m    0.      
  851.00000m    0.      
  852.00000m    0.      
  853.00000m    0.      
  854.00000m    0.      
  855.00000m    0.      
  856.00000m    0.      
  857.00000m    0.      
  858.00000m    0.      
  859.00000m    0.      
  860.00000m    0.      
  861.00000m    0.      
  862.00000m    0.      
  863.00000m    0.      
  864.00000m    0.      
  865.00000m    0.      
  866.00000m    0.      
  867.00000m    0.      
  868.00000m    0.      
  869.00000m    0.      
  870.00000m    0.      
  871.00000m    0.      
  872.00000m    0.      
  873.00000m    0.      
  874.00000m    0.      
  875.00000m    0.      
  876.00000m    0.      
  877.00000m    0.      
  878.00000m    0.      
  879.00000m    0.      
  880.00000m    0.      
  881.00000m    0.      
  882.00000m    0.      
  883.00000m    0.      
  884.00000m    0.      
  885.00000m    0.      
  886.00000m    0.      
  887.00000m    0.      
  888.00000m    0.      
  889.00000m    0.      
  890.00000m    0.      
  891.00000m    0.      
  892.00000m    0.      
  893.00000m    0.      
  894.00000m    0.      
  895.00000m    0.      
  896.00000m    0.      
  897.00000m    0.      
  898.00000m    0.      
  899.00000m    0.      
  900.00000m    0.      
  901.00000m    0.      
  902.00000m    0.      
  903.00000m    0.      
  904.00000m    0.      
  905.00000m    0.      
  906.00000m    0.      
  907.00000m    0.      
  908.00000m    0.      
  909.00000m    0.      
  910.00000m    0.      
  911.00000m    0.      
  912.00000m    0.      
  913.00000m    0.      
  914.00000m    0.      
  915.00000m    0.      
  916.00000m    0.      
  917.00000m    0.      
  918.00000m    0.      
  919.00000m    0.      
  920.00000m    0.      
  921.00000m    0.      
  922.00000m    0.      
  923.00000m    0.      
  924.00000m    0.      
  925.00000m    0.      
  926.00000m    0.      
  927.00000m    0.      
  928.00000m    0.      
  929.00000m    0.      
  930.00000m    0.      
  931.00000m    0.      
  932.00000m    0.      
  933.00000m    0.      
  934.00000m    0.      
  935.00000m    0.      
  936.00000m    0.      
  937.00000m    0.      
  938.00000m    0.      
  939.00000m    0.      
  940.00000m    0.      
  941.00000m    0.      
  942.00000m    0.      
  943.00000m    0.      
  944.00000m    0.      
  945.00000m    0.      
  946.00000m    0.      
  947.00000m    0.      
  948.00000m    0.      
  949.00000m    0.      
  950.00000m    0.      
  951.00000m    0.      
  952.00000m    0.      
  953.00000m    0.      
  954.00000m    0.      
  955.00000m    0.      
  956.00000m    0.      
  957.00000m    0.      
  958.00000m    0.      
  959.00000m    0.      
  960.00000m    0.      
  961.00000m    0.      
  962.00000m    0.      
  963.00000m    0.      
  964.00000m    0.      
  965.00000m    0.      
  966.00000m    0.      
  967.00000m    0.      
  968.00000m    0.      
  969.00000m    0.      
  970.00000m    0.      
  971.00000m    0.      
  972.00000m    0.      
  973.00000m    0.      
  974.00000m    0.      
  975.00000m    0.      
  976.00000m    0.      
  977.00000m    0.      
  978.00000m    0.      
  979.00000m    0.      
  980.00000m    0.      
  981.00000m    0.      
  982.00000m    0.      
  983.00000m    0.      
  984.00000m    0.      
  985.00000m    0.      
  986.00000m    0.      
  987.00000m    0.      
  988.00000m    0.      
  989.00000m    0.      
  990.00000m    0.      
  991.00000m    0.      
  992.00000m    0.      
  993.00000m    0.      
  994.00000m    0.      
  995.00000m    0.      
  996.00000m    0.      
  997.00000m    0.      
  998.00000m    0.      
  999.00000m    0.      
    1.00000     0.      
    1.00100     0.      
    1.00200     0.      
    1.00300     0.      
    1.00400     0.      
    1.00500     0.      
    1.00600     0.      
    1.00700     0.      
    1.00800     0.      
    1.00900     0.      
    1.01000     0.      
    1.01100     0.      
    1.01200     0.      
    1.01300     0.      
    1.01400     0.      
    1.01500     0.      
    1.01600     0.      
    1.01700     0.      
    1.01800     0.      
    1.01900     0.      
    1.02000     0.      
    1.02100     0.      
    1.02200     0.      
    1.02300     0.      
    1.02400     0.      
    1.02500     0.      
    1.02600     0.      
    1.02700     0.      
    1.02800     0.      
    1.02900     0.      
    1.03000     0.      
    1.03100     0.      
    1.03200     0.      
    1.03300     0.      
    1.03400     0.      
    1.03500     0.      
    1.03600     0.      
    1.03700     0.      
    1.03800     0.      
    1.03900     0.      
    1.04000     0.      
    1.04100     0.      
    1.04200     0.      
    1.04300     0.      
    1.04400     0.      
    1.04500     0.      
    1.04600     0.      
    1.04700     0.      
    1.04800   -75.3431p 
    1.04900  -386.9506p 
    1.05000  -940.1631p 
    1.05100    -1.7350n 
    1.05200    -2.7714n 
    1.05300    -4.0494n 
    1.05400    -5.5691n 
    1.05500    -7.3303n 
    1.05600    -9.3331n 
    1.05700   -11.5776n 
    1.05800   -14.0636n 
    1.05900   -16.7913n 
    1.06000   -19.7606n 
    1.06100   -22.9714n 
    1.06200   -26.4239n 
    1.06300   -30.1180n 
    1.06400   -34.0537n 
    1.06500   -38.2310n 
    1.06600   -42.6498n 
    1.06700   -47.3103n 
    1.06800   -52.2124n 
    1.06900   -57.3562n 
    1.07000   -62.7415n 
    1.07100   -68.3684n 
    1.07200   -74.2369n 
    1.07300   -80.3470n 
    1.07400   -86.6988n 
    1.07500   -93.2921n 
    1.07600  -100.1270n 
    1.07700  -107.2036n 
    1.07800  -114.5217n 
    1.07900  -122.0815n 
    1.08000  -129.8829n 
    1.08100  -137.9258n 
    1.08200  -146.2104n 
    1.08300  -154.7366n 
    1.08400  -163.5044n 
    1.08500  -172.5138n 
    1.08600  -181.7647n 
    1.08700  -191.2573n 
    1.08800  -200.9915n 
    1.08900  -210.9674n 
    1.09000  -221.1848n 
    1.09100  -231.6438n 
    1.09200  -242.3444n 
    1.09300  -253.2866n 
    1.09400  -264.4705n 
    1.09500  -275.8959n 
    1.09600  -287.5629n 
    1.09700  -299.4716n 
    1.09800  -311.6218n 
    1.09900  -324.0137n 
    1.10000  -336.6472n 
    1.10100  -349.5222n 
    1.10200  -362.6389n 
    1.10300  -375.9972n 
    1.10400  -389.5971n 
    1.10500  -403.4386n 
    1.10600  -417.5216n 
    1.10700  -431.8463n 
    1.10800  -446.4126n 
    1.10900  -461.2206n 
    1.11000  -476.2701n 
    1.11100  -491.5612n 
    1.11200  -507.0939n 
    1.11300  -522.8682n 
    1.11400  -538.8842n 
    1.11500  -555.1417n 
    1.11600  -571.6408n 
    1.11700  -588.3816n 
    1.11800  -605.3639n 
    1.11900  -622.5879n 
    1.12000  -640.0535n 
    1.12100  -657.7606n 
    1.12200  -675.7094n 
    1.12300  -693.8998n 
    1.12400  -712.3318n 
    1.12500  -731.0054n 
    1.12600  -749.9205n 
    1.12700  -769.0773n 
    1.12800  -788.4757n 
    1.12900  -808.1158n 
    1.13000  -827.9974n 
    1.13100  -848.1206n 
    1.13200  -868.4854n 
    1.13300  -889.0918n 
    1.13400  -909.9399n 
    1.13500  -931.0295n 
    1.13600  -952.3607n 
    1.13700  -973.9336n 
    1.13800  -995.7480n 
    1.13900    -1.0178u 
    1.14000    -1.0401u 
    1.14100    -1.0626u 
    1.14200    -1.0854u 
    1.14300    -1.1084u 
    1.14400    -1.1317u 
    1.14500    -1.1552u 
    1.14600    -1.1790u 
    1.14700    -1.2030u 
    1.14800    -1.2272u 
    1.14900    -1.2517u 
    1.15000    -1.2764u 
    1.15100    -1.3013u 
    1.15200    -1.3265u 
    1.15300    -1.3520u 
    1.15400    -1.3776u 
    1.15500    -1.4036u 
    1.15600    -1.4297u 
    1.15700    -1.4561u 
    1.15800    -1.4828u 
    1.15900    -1.5097u 
    1.16000    -1.5368u 
    1.16100    -1.5642u 
    1.16200    -1.5918u 
    1.16300    -1.6196u 
    1.16400    -1.6477u 
    1.16500    -1.6761u 
    1.16600    -1.7046u 
    1.16700    -1.7335u 
    1.16800    -1.7625u 
    1.16900    -1.7918u 
    1.17000    -1.8214u 
    1.17100    -1.8512u 
    1.17200    -1.8812u 
    1.17300    -1.9115u 
    1.17400    -1.9420u 
    1.17500    -1.9727u 
    1.17600    -2.0037u 
    1.17700    -2.0350u 
    1.17800    -2.0664u 
    1.17900    -2.0982u 
    1.18000    -2.1301u 
    1.18100    -2.1623u 
    1.18200    -2.1948u 
    1.18300    -2.2275u 
    1.18400    -2.2604u 
    1.18500    -2.2936u 
    1.18600    -2.3270u 
    1.18700    -2.3606u 
    1.18800    -2.3945u 
    1.18900    -2.4287u 
    1.19000    -2.4630u 
    1.19100    -2.4977u 
    1.19200    -2.5325u 
    1.19300    -2.5676u 
    1.19400    -2.6030u 
    1.19500    -2.6385u 
    1.19600    -2.6744u 
    1.19700    -2.7104u 
    1.19800    -2.7468u 
    1.19900    -2.7833u 
    1.20000    -2.8201u 
    1.20100    -2.8571u 
    1.20200    -2.8944u 
    1.20300    -2.9319u 
    1.20400    -2.9697u 
    1.20500    -3.0077u 
    1.20600    -3.0459u 
    1.20700    -3.0844u 
    1.20800    -3.1231u 
    1.20900    -3.1621u 
    1.21000    -3.2013u 
    1.21100    -3.2408u 
    1.21200    -3.2805u 
    1.21300    -3.3204u 
    1.21400    -3.3606u 
    1.21500    -3.4010u 
    1.21600    -3.4417u 
    1.21700    -3.4826u 
    1.21800    -3.5237u 
    1.21900    -3.5651u 
    1.22000    -3.6067u 
    1.22100    -3.6486u 
    1.22200    -3.6907u 
    1.22300    -3.7330u 
    1.22400    -3.7756u 
    1.22500    -3.8185u 
    1.22600    -3.8615u 
    1.22700    -3.9049u 
    1.22800    -3.9484u 
    1.22900    -3.9922u 
    1.23000    -4.0363u 
    1.23100    -4.0805u 
    1.23200    -4.1251u 
    1.23300    -4.1698u 
    1.23400    -4.2148u 
    1.23500    -4.2601u 
    1.23600    -4.3056u 
    1.23700    -4.3513u 
    1.23800    -4.3973u 
    1.23900    -4.4435u 
    1.24000    -4.4900u 
    1.24100    -4.5367u 
    1.24200    -4.5836u 
    1.24300    -4.6308u 
    1.24400    -4.6782u 
    1.24500    -4.7259u 
    1.24600    -4.7738u 
    1.24700    -4.8219u 
    1.24800    -4.8703u 
    1.24900    -4.9190u 
    1.25000    -4.9678u 
    1.25100    -5.0170u 
    1.25200    -5.0663u 
    1.25300    -5.1159u 
    1.25400    -5.1658u 
    1.25500    -5.2158u 
    1.25600    -5.2662u 
    1.25700    -5.3167u 
    1.25800    -5.3675u 
    1.25900    -5.4186u 
    1.26000    -5.4699u 
    1.26100    -5.5214u 
    1.26200    -5.5732u 
    1.26300    -5.6252u 
    1.26400    -5.6775u 
    1.26500    -5.7299u 
    1.26600    -5.7827u 
    1.26700    -5.8357u 
    1.26800    -5.8889u 
    1.26900    -5.9424u 
    1.27000    -5.9961u 
    1.27100    -6.0500u 
    1.27200    -6.1042u 
    1.27300    -6.1586u 
    1.27400    -6.2133u 
    1.27500    -6.2682u 
    1.27600    -6.3234u 
    1.27700    -6.3788u 
    1.27800    -6.4344u 
    1.27900    -6.4903u 
    1.28000    -6.5464u 
    1.28100    -6.6028u 
    1.28200    -6.6594u 
    1.28300    -6.7162u 
    1.28400    -6.7733u 
    1.28500    -6.8307u 
    1.28600    -6.8882u 
    1.28700    -6.9460u 
    1.28800    -7.0041u 
    1.28900    -7.0624u 
    1.29000    -7.1209u 
    1.29100    -7.1797u 
    1.29200    -7.2387u 
    1.29300    -7.2980u 
    1.29400    -7.3575u 
    1.29500    -7.4172u 
    1.29600    -7.4772u 
    1.29700    -7.5375u 
    1.29800    -7.5979u 
    1.29900    -7.6586u 
    1.30000    -7.7196u 
    1.30100    -7.7808u 
    1.30200    -7.8422u 
    1.30300    -7.9039u 
    1.30400    -7.9658u 
    1.30500    -8.0280u 
    1.30600    -8.0904u 
    1.30700    -8.1530u 
    1.30800    -8.2159u 
    1.30900    -8.2791u 
    1.31000    -8.3424u 
    1.31100    -8.4060u 
    1.31200    -8.4699u 
    1.31300    -8.5340u 
    1.31400    -8.5983u 
    1.31500    -8.6629u 
    1.31600    -8.7277u 
    1.31700    -8.7928u 
    1.31800    -8.8581u 
    1.31900    -8.9236u 
    1.32000    -8.9894u 
    1.32100    -9.0555u 
    1.32200    -9.1217u 
    1.32300    -9.1882u 
    1.32400    -9.2550u 
    1.32500    -9.3220u 
    1.32600    -9.3892u 
    1.32700    -9.4567u 
    1.32800    -9.5244u 
    1.32900    -9.5924u 
    1.33000    -9.6606u 
    1.33100    -9.7290u 
    1.33200    -9.7977u 
    1.33300    -9.8666u 
    1.33400    -9.9358u 
    1.33500   -10.0052u 
    1.33600   -10.0749u 
    1.33700   -10.1448u 
    1.33800   -10.2149u 
    1.33900   -10.2853u 
    1.34000   -10.3559u 
    1.34100   -10.4268u 
    1.34200   -10.4979u 
    1.34300   -10.5692u 
    1.34400   -10.6408u 
    1.34500   -10.7126u 
    1.34600   -10.7847u 
    1.34700   -10.8570u 
    1.34800   -10.9295u 
    1.34900   -11.0023u 
    1.35000   -11.0754u 
    1.35100   -11.1486u 
    1.35200   -11.2222u 
    1.35300   -11.2959u 
    1.35400   -11.3699u 
    1.35500   -11.4442u 
    1.35600   -11.5187u 
    1.35700   -11.5934u 
    1.35800   -11.6683u 
    1.35900   -11.7436u 
    1.36000   -11.8190u 
    1.36100   -11.8947u 
    1.36200   -11.9706u 
    1.36300   -12.0468u 
    1.36400   -12.1232u 
    1.36500   -12.1999u 
    1.36600   -12.2768u 
    1.36700   -12.3539u 
    1.36800   -12.4313u 
    1.36900   -12.5089u 
    1.37000   -12.5868u 
    1.37100   -12.6649u 
    1.37200   -12.7433u 
    1.37300   -12.8219u 
    1.37400   -12.9007u 
    1.37500   -12.9798u 
    1.37600   -13.0591u 
    1.37700   -13.1386u 
    1.37800   -13.2184u 
    1.37900   -13.2985u 
    1.38000   -13.3788u 
    1.38100   -13.4593u 
    1.38200   -13.5400u 
    1.38300   -13.6211u 
    1.38400   -13.7023u 
    1.38500   -13.7838u 
    1.38600   -13.8655u 
    1.38700   -13.9475u 
    1.38800   -14.0297u 
    1.38900   -14.1122u 
    1.39000   -14.1949u 
    1.39100   -14.2778u 
    1.39200   -14.3610u 
    1.39300   -14.4444u 
    1.39400   -14.5281u 
    1.39500   -14.6120u 
    1.39600   -14.6961u 
    1.39700   -14.7805u 
    1.39800   -14.8652u 
    1.39900   -14.9500u 
    1.40000   -15.0352u 
    1.40100   -15.1205u 
    1.40200   -15.2061u 
    1.40300   -15.2919u 
    1.40400   -15.3780u 
    1.40500   -15.4644u 
    1.40600   -15.5509u 
    1.40700   -15.6377u 
    1.40800   -15.7248u 
    1.40900   -15.8121u 
    1.41000   -15.8996u 
    1.41100   -15.9874u 
    1.41200   -16.0754u 
    1.41300   -16.1636u 
    1.41400   -16.2521u 
    1.41500   -16.3409u 
    1.41600   -16.4298u 
    1.41700   -16.5191u 
    1.41800   -16.6085u 
    1.41900   -16.6982u 
    1.42000   -16.7882u 
    1.42100   -16.8784u 
    1.42200   -16.9688u 
    1.42300   -17.0595u 
    1.42400   -17.1504u 
    1.42500   -17.2415u 
    1.42600   -17.3329u 
    1.42700   -17.4246u 
    1.42800   -17.5165u 
    1.42900   -17.6086u 
    1.43000   -17.7009u 
    1.43100   -17.7936u 
    1.43200   -17.8864u 
    1.43300   -17.9795u 
    1.43400   -18.0728u 
    1.43500   -18.1664u 
    1.43600   -18.2602u 
    1.43700   -18.3543u 
    1.43800   -18.4485u 
    1.43900   -18.5431u 
    1.44000   -18.6379u 
    1.44100   -18.7329u 
    1.44200   -18.8281u 
    1.44300   -18.9237u 
    1.44400   -19.0194u 
    1.44500   -19.1154u 
    1.44600   -19.2116u 
    1.44700   -19.3081u 
    1.44800   -19.4048u 
    1.44900   -19.5018u 
    1.45000   -19.5989u 
    1.45100   -19.6964u 
    1.45200   -19.7941u 
    1.45300   -19.8920u 
    1.45400   -19.9901u 
    1.45500   -20.0885u 
    1.45600   -20.1872u 
    1.45700   -20.2861u 
    1.45800   -20.3852u 
    1.45900   -20.4846u 
    1.46000   -20.5842u 
    1.46100   -20.6840u 
    1.46200   -20.7841u 
    1.46300   -20.8845u 
    1.46400   -20.9850u 
    1.46500   -21.0859u 
    1.46600   -21.1869u 
    1.46700   -21.2882u 
    1.46800   -21.3898u 
    1.46900   -21.4916u 
    1.47000   -21.5936u 
    1.47100   -21.6959u 
    1.47200   -21.7984u 
    1.47300   -21.9011u 
    1.47400   -22.0041u 
    1.47500   -22.1073u 
    1.47600   -22.2108u 
    1.47700   -22.3145u 
    1.47800   -22.4185u 
    1.47900   -22.5227u 
    1.48000   -22.6271u 
    1.48100   -22.7318u 
    1.48200   -22.8368u 
    1.48300   -22.9419u 
    1.48400   -23.0473u 
    1.48500   -23.1530u 
    1.48600   -23.2589u 
    1.48700   -23.3650u 
    1.48800   -23.4714u 
    1.48900   -23.5780u 
    1.49000   -23.6849u 
    1.49100   -23.7920u 
    1.49200   -23.8993u 
    1.49300   -24.0069u 
    1.49400   -24.1147u 
    1.49500   -24.2228u 
    1.49600   -24.3311u 
    1.49700   -24.4397u 
    1.49800   -24.5484u 
    1.49900   -24.6575u 
    1.50000   -24.7668u 
    1.50100   -24.8763u 
    1.50200   -24.9860u 
    1.50300   -25.0960u 
    1.50400   -25.2063u 
    1.50500   -25.3168u 
    1.50600   -25.4275u 
    1.50700   -25.5384u 
    1.50800   -25.6497u 
    1.50900   -25.7611u 
    1.51000   -25.8728u 
    1.51100   -25.9847u 
    1.51200   -26.0969u 
    1.51300   -26.2093u 
    1.51400   -26.3220u 
    1.51500   -26.4349u 
    1.51600   -26.5480u 
    1.51700   -26.6614u 
    1.51800   -26.7750u 
    1.51900   -26.8889u 
    1.52000   -27.0030u 
    1.52100   -27.1173u 
    1.52200   -27.2319u 
    1.52300   -27.3468u 
    1.52400   -27.4618u 
    1.52500   -27.5772u 
    1.52600   -27.6927u 
    1.52700   -27.8085u 
    1.52800   -27.9246u 
    1.52900   -28.0408u 
    1.53000   -28.1574u 
    1.53100   -28.2741u 
    1.53200   -28.3911u 
    1.53300   -28.5084u 
    1.53400   -28.6259u 
    1.53500   -28.7436u 
    1.53600   -28.8616u 
    1.53700   -28.9798u 
    1.53800   -29.0983u 
    1.53900   -29.2169u 
    1.54000   -29.3359u 
    1.54100   -29.4551u 
    1.54200   -29.5745u 
    1.54300   -29.6942u 
    1.54400   -29.8141u 
    1.54500   -29.9342u 
    1.54600   -30.0546u 
    1.54700   -30.1752u 
    1.54800   -30.2961u 
    1.54900   -30.4172u 
    1.55000   -30.5386u 
    1.55100   -30.6602u 
    1.55200   -30.7820u 
    1.55300   -30.9041u 
    1.55400   -31.0264u 
    1.55500   -31.1490u 
    1.55600   -31.2718u 
    1.55700   -31.3948u 
    1.55800   -31.5181u 
    1.55900   -31.6416u 
    1.56000   -31.7654u 
    1.56100   -31.8894u 
    1.56200   -32.0137u 
    1.56300   -32.1382u 
    1.56400   -32.2629u 
    1.56500   -32.3879u 
    1.56600   -32.5131u 
    1.56700   -32.6386u 
    1.56800   -32.7643u 
    1.56900   -32.8902u 
    1.57000   -33.0164u 
    1.57100   -33.1429u 
    1.57200   -33.2695u 
    1.57300   -33.3964u 
    1.57400   -33.5236u 
    1.57500   -33.6510u 
    1.57600   -33.7786u 
    1.57700   -33.9065u 
    1.57800   -34.0346u 
    1.57900   -34.1630u 
    1.58000   -34.2916u 
    1.58100   -34.4204u 
    1.58200   -34.5495u 
    1.58300   -34.6789u 
    1.58400   -34.8084u 
    1.58500   -34.9382u 
    1.58600   -35.0683u 
    1.58700   -35.1986u 
    1.58800   -35.3291u 
    1.58900   -35.4599u 
    1.59000   -35.5909u 
    1.59100   -35.7222u 
    1.59200   -35.8537u 
    1.59300   -35.9854u 
    1.59400   -36.1174u 
    1.59500   -36.2496u 
    1.59600   -36.3821u 
    1.59700   -36.5148u 
    1.59800   -36.6478u 
    1.59900   -36.7810u 
    1.60000   -36.9144u 
    1.60100   -37.0481u 
    1.60200   -37.1820u 
    1.60300   -37.3162u 
    1.60400   -37.4506u 
    1.60500   -37.5852u 
    1.60600   -37.7201u 
    1.60700   -37.8552u 
    1.60800   -37.9906u 
    1.60900   -38.1262u 
    1.61000   -38.2621u 
    1.61100   -38.3981u 
    1.61200   -38.5345u 
    1.61300   -38.6711u 
    1.61400   -38.8079u 
    1.61500   -38.9449u 
    1.61600   -39.0822u 
    1.61700   -39.2198u 
    1.61800   -39.3576u 
    1.61900   -39.4956u 
    1.62000   -39.6339u 
    1.62100   -39.7724u 
    1.62200   -39.9111u 
    1.62300   -40.0501u 
    1.62400   -40.1893u 
    1.62500   -40.3288u 
    1.62600   -40.4685u 
    1.62700   -40.6085u 
    1.62800   -40.7487u 
    1.62900   -40.8891u 
    1.63000   -41.0298u 
    1.63100   -41.1708u 
    1.63200   -41.3119u 
    1.63300   -41.4533u 
    1.63400   -41.5950u 
    1.63500   -41.7369u 
    1.63600   -41.8790u 
    1.63700   -42.0214u 
    1.63800   -42.1640u 
    1.63900   -42.3069u 
    1.64000   -42.4500u 
    1.64100   -42.5933u 
    1.64200   -42.7369u 
    1.64300   -42.8807u 
    1.64400   -43.0248u 
    1.64500   -43.1691u 
    1.64600   -43.3136u 
    1.64700   -43.4584u 
    1.64800   -43.6035u 
    1.64900   -43.7487u 
    1.65000   -43.8942u 
    1.65100   -44.0400u 
    1.65200   -44.1860u 
    1.65300   -44.3322u 
    1.65400   -44.4787u 
    1.65500   -44.6255u 
    1.65600   -44.7724u 
    1.65700   -44.9196u 
    1.65800   -45.0671u 
    1.65900   -45.2148u 
    1.66000   -45.3627u 
    1.66100   -45.5109u 
    1.66200   -45.6593u 
    1.66300   -45.8079u 
    1.66400   -45.9568u 
    1.66500   -46.1060u 
    1.66600   -46.2554u 
    1.66700   -46.4050u 
    1.66800   -46.5549u 
    1.66900   -46.7050u 
    1.67000   -46.8553u 
    1.67100   -47.0059u 
    1.67200   -47.1567u 
    1.67300   -47.3078u 
    1.67400   -47.4591u 
    1.67500   -47.6107u 
    1.67600   -47.7625u 
    1.67700   -47.9145u 
    1.67800   -48.0668u 
    1.67900   -48.2193u 
    1.68000   -48.3721u 
    1.68100   -48.5251u 
    1.68200   -48.6783u 
    1.68300   -48.8318u 
    1.68400   -48.9856u 
    1.68500   -49.1395u 
    1.68600   -49.2937u 
    1.68700   -49.4482u 
    1.68800   -49.6029u 
    1.68900   -49.7578u 
    1.69000   -49.9130u 
    1.69100   -50.0684u 
    1.69200   -50.2241u 
    1.69300   -50.3800u 
    1.69400   -50.5362u 
    1.69500   -50.6925u 
    1.69600   -50.8492u 
    1.69700   -51.0060u 
    1.69800   -51.1632u 
    1.69900   -51.3205u 
    1.70000   -51.4781u 
    1.70100   -51.6359u 
    1.70200   -51.7940u 
    1.70300   -51.9523u 
    1.70400   -52.1109u 
    1.70500   -52.2697u 
    1.70600   -52.4288u 
    1.70700   -52.5880u 
    1.70800   -52.7476u 
    1.70900   -52.9073u 
    1.71000   -53.0674u 
    1.71100   -53.2276u 
    1.71200   -53.3881u 
    1.71300   -53.5488u 
    1.71400   -53.7098u 
    1.71500   -53.8710u 
    1.71600   -54.0325u 
    1.71700   -54.1942u 
    1.71800   -54.3562u 
    1.71900   -54.5183u 
    1.72000   -54.6808u 
    1.72100   -54.8434u 
    1.72200   -55.0064u 
    1.72300   -55.1695u 
    1.72400   -55.3329u 
    1.72500   -55.4965u 
    1.72600   -55.6604u 
    1.72700   -55.8245u 
    1.72800   -55.9889u 
    1.72900   -56.1535u 
    1.73000   -56.3183u 
    1.73100   -56.4834u 
    1.73200   -56.6488u 
    1.73300   -56.8143u 
    1.73400   -56.9801u 
    1.73500   -57.1462u 
    1.73600   -57.3125u 
    1.73700   -57.4790u 
    1.73800   -57.6458u 
    1.73900   -57.8128u 
    1.74000   -57.9801u 
    1.74100   -58.1476u 
    1.74200   -58.3153u 
    1.74300   -58.4833u 
    1.74400   -58.6515u 
    1.74500   -58.8200u 
    1.74600   -58.9887u 
    1.74700   -59.1577u 
    1.74800   -59.3269u 
    1.74900   -59.4963u 
    1.75000   -59.6660u 
    1.75100   -59.8359u 
    1.75200   -60.0061u 
    1.75300   -60.1765u 
    1.75400   -60.3471u 
    1.75500   -60.5180u 
    1.75600   -60.6891u 
    1.75700   -60.8605u 
    1.75800   -61.0321u 
    1.75900   -61.2039u 
    1.76000   -61.3760u 
    1.76100   -61.5484u 
    1.76200   -61.7209u 
    1.76300   -61.8938u 
    1.76400   -62.0668u 
    1.76500   -62.2401u 
    1.76600   -62.4137u 
    1.76700   -62.5874u 
    1.76800   -62.7615u 
    1.76900   -62.9357u 
    1.77000   -63.1102u 
    1.77100   -63.2850u 
    1.77200   -63.4600u 
    1.77300   -63.6352u 
    1.77400   -63.8107u 
    1.77500   -63.9864u 
    1.77600   -64.1624u 
    1.77700   -64.3386u 
    1.77800   -64.5150u 
    1.77900   -64.6917u 
    1.78000   -64.8686u 
    1.78100   -65.0458u 
    1.78200   -65.2232u 
    1.78300   -65.4008u 
    1.78400   -65.5787u 
    1.78500   -65.7569u 
    1.78600   -65.9352u 
    1.78700   -66.1139u 
    1.78800   -66.2927u 
    1.78900   -66.4718u 
    1.79000   -66.6512u 
    1.79100   -66.8307u 
    1.79200   -67.0106u 
    1.79300   -67.1906u 
    1.79400   -67.3709u 
    1.79500   -67.5515u 
    1.79600   -67.7323u 
    1.79700   -67.9133u 
    1.79800   -68.0946u 
    1.79900   -68.2761u 
    1.80000   -68.4579u 
    1.80100   -68.6399u 
    1.80200   -68.8221u 
    1.80300   -69.0046u 
    1.80400   -69.1873u 
    1.80500   -69.3703u 
    1.80600   -69.5535u 
    1.80700   -69.7369u 
    1.80800   -69.9206u 
    1.80900   -70.1045u 
    1.81000   -70.2887u 
    1.81100   -70.4731u 
    1.81200   -70.6578u 
    1.81300   -70.8427u 
    1.81400   -71.0278u 
    1.81500   -71.2132u 
    1.81600   -71.3988u 
    1.81700   -71.5847u 
    1.81800   -71.7708u 
    1.81900   -71.9571u 
    1.82000   -72.1437u 
    1.82100   -72.3306u 
    1.82200   -72.5176u 
    1.82300   -72.7050u 
    1.82400   -72.8925u 
    1.82500   -73.0803u 
    1.82600   -73.2683u 
    1.82700   -73.4566u 
    1.82800   -73.6451u 
    1.82900   -73.8339u 
    1.83000   -74.0229u 
    1.83100   -74.2122u 
    1.83200   -74.4016u 
    1.83300   -74.5914u 
    1.83400   -74.7813u 
    1.83500   -74.9716u 
    1.83600   -75.1620u 
    1.83700   -75.3527u 
    1.83800   -75.5437u 
    1.83900   -75.7348u 
    1.84000   -75.9263u 
    1.84100   -76.1179u 
    1.84200   -76.3098u 
    1.84300   -76.5020u 
    1.84400   -76.6944u 
    1.84500   -76.8870u 
    1.84600   -77.0799u 
    1.84700   -77.2730u 
    1.84800   -77.4663u 
    1.84900   -77.6599u 
    1.85000   -77.8538u 
    1.85100   -78.0478u 
    1.85200   -78.2422u 
    1.85300   -78.4367u 
    1.85400   -78.6315u 
    1.85500   -78.8266u 
    1.85600   -79.0218u 
    1.85700   -79.2174u 
    1.85800   -79.4131u 
    1.85900   -79.6092u 
    1.86000   -79.8054u 
    1.86100   -80.0019u 
    1.86200   -80.1986u 
    1.86300   -80.3956u 
    1.86400   -80.5928u 
    1.86500   -80.7903u 
    1.86600   -80.9880u 
    1.86700   -81.1860u 
    1.86800   -81.3841u 
    1.86900   -81.5826u 
    1.87000   -81.7812u 
    1.87100   -81.9801u 
    1.87200   -82.1793u 
    1.87300   -82.3787u 
    1.87400   -82.5783u 
    1.87500   -82.7782u 
    1.87600   -82.9783u 
    1.87700   -83.1787u 
    1.87800   -83.3793u 
    1.87900   -83.5801u 
    1.88000   -83.7812u 
    1.88100   -83.9825u 
    1.88200   -84.1841u 
    1.88300   -84.3859u 
    1.88400   -84.5880u 
    1.88500   -84.7903u 
    1.88600   -84.9928u 
    1.88700   -85.1956u 
    1.88800   -85.3986u 
    1.88900   -85.6019u 
    1.89000   -85.8054u 
    1.89100   -86.0091u 
    1.89200   -86.2131u 
    1.89300   -86.4173u 
    1.89400   -86.6218u 
    1.89500   -86.8265u 
    1.89600   -87.0314u 
    1.89700   -87.2366u 
    1.89800   -87.4421u 
    1.89900   -87.6477u 
    1.90000   -87.8537u 
    1.90100   -88.0598u 
    1.90200   -88.2662u 
    1.90300   -88.4729u 
    1.90400   -88.6797u 
    1.90500   -88.8869u 
    1.90600   -89.0942u 
    1.90700   -89.3018u 
    1.90800   -89.5097u 
    1.90900   -89.7178u 
    1.91000   -89.9261u 
    1.91100   -90.1347u 
    1.91200   -90.3435u 
    1.91300   -90.5526u 
    1.91400   -90.7619u 
    1.91500   -90.9714u 
    1.91600   -91.1812u 
    1.91700   -91.3912u 
    1.91800   -91.6015u 
    1.91900   -91.8120u 
    1.92000   -92.0227u 
    1.92100   -92.2337u 
    1.92200   -92.4450u 
    1.92300   -92.6564u 
    1.92400   -92.8682u 
    1.92500   -93.0801u 
    1.92600   -93.2923u 
    1.92700   -93.5048u 
    1.92800   -93.7174u 
    1.92900   -93.9304u 
    1.93000   -94.1435u 
    1.93100   -94.3569u 
    1.93200   -94.5706u 
    1.93300   -94.7845u 
    1.93400   -94.9986u 
    1.93500   -95.2130u 
    1.93600   -95.4276u 
    1.93700   -95.6425u 
    1.93800   -95.8576u 
    1.93900   -96.0729u 
    1.94000   -96.2885u 
    1.94100   -96.5043u 
    1.94200   -96.7204u 
    1.94300   -96.9367u 
    1.94400   -97.1532u 
    1.94500   -97.3700u 
    1.94600   -97.5870u 
    1.94700   -97.8043u 
    1.94800   -98.0218u 
    1.94900   -98.2396u 
    1.95000   -98.4576u 
    1.95100   -98.6758u 
    1.95200   -98.8943u 
    1.95300   -99.1130u 
    1.95400   -99.3320u 
    1.95500   -99.5512u 
    1.95600   -99.7706u 
    1.95700   -99.9903u 
    1.95800  -100.2103u 
    1.95900  -100.4304u 
    1.96000  -100.6508u 
    1.96100  -100.8715u 
    1.96200  -101.0924u 
    1.96300  -101.3135u 
    1.96400  -101.5349u 
    1.96500  -101.7565u 
    1.96600  -101.9784u 
    1.96700  -102.2005u 
    1.96800  -102.4229u 
    1.96900  -102.6454u 
    1.97000  -102.8683u 
    1.97100  -103.0913u 
    1.97200  -103.3147u 
    1.97300  -103.5382u 
    1.97400  -103.7620u 
    1.97500  -103.9860u 
    1.97600  -104.2103u 
    1.97700  -104.4348u 
    1.97800  -104.6596u 
    1.97900  -104.8846u 
    1.98000  -105.1099u 
    1.98100  -105.3353u 
    1.98200  -105.5611u 
    1.98300  -105.7870u 
    1.98400  -106.0133u 
    1.98500  -106.2397u 
    1.98600  -106.4664u 
    1.98700  -106.6933u 
    1.98800  -106.9205u 
    1.98900  -107.1479u 
    1.99000  -107.3756u 
    1.99100  -107.6035u 
    1.99200  -107.8317u 
    1.99300  -108.0600u 
    1.99400  -108.2887u 
    1.99500  -108.5175u 
    1.99600  -108.7466u 
    1.99700  -108.9760u 
    1.99800  -109.2056u 
    1.99900  -109.4354u 
    2.00000  -109.6655u 
y

          ***** job concluded
 ******  
 *mos

 ****** job statistics summary tnom=  25.000 temp=  25.000 ******
  
 ******  Machine Information  ******
 CPU:
 model name	: Intel(R) Xeon(R) CPU           E5620  @ 2.40GHz
 cpu MHz	: 1596.000
  
 OS:
 Linux version 2.6.32-754.6.3.el6.x86_64 (mockbuild@x86-01.bsys.centos.org) (gcc version 4.4.7 20120313 (Red Hat 4.4.7-23) (GCC) ) #1 SMP Tue Oct 9 17:27:49 UTC 2018


  ******  HSPICE Threads Information  ******

  Command Line Threads Count :     1
  Available CPU Count        :    16
  Actual Threads Count       :     1


  ******  Circuit Statistics  ******
  # nodes       =       3 # elements   =       3
  # resistors   =       0 # capacitors =       0 # inductors   =       0
  # mutual_inds =       0 # vccs       =       0 # vcvs        =       0
  # cccs        =       0 # ccvs       =       0 # volt_srcs   =       2
  # curr_srcs   =       0 # diodes     =       0 # bjts        =       0
  # jfets       =       0 # mosfets    =       0 # U elements  =       0
  # T elements  =       0 # W elements =       0 # B elements  =       0
  # S elements  =       0 # P elements =       0 # va device   =       1
  # vector_srcs =       0 # N elements =       0


  ******  Runtime Statistics (seconds)  ******

  analysis           time    # points   tot. iter  conv.iter
  op point           0.00           1           0
  dc sweep           0.19        2001        4003
  readin             2.02
  errchk             0.00
  setup              0.20
  output             0.00


           peak memory used        301.59 megabytes
           total cpu time            2.55 seconds
           total elapsed time        2.69 seconds
           job started at     18:17:19 11/07/2019
           job ended   at     18:17:22 11/07/2019
           job total runtime         2.69 seconds


 lic: Release hspice token(s) 
 lic: total license checkout elapse time:        0.03(s)
