 ****** HSPICE -- P-2019.06-SP1-1 linux64 (Sep 27 2019) ******                  
  Copyright (c) 1986 - 2019 by Synopsys, Inc. All Rights Reserved.              
  This software and the associated documentation are proprietary
  to Synopsys, Inc. This software may only be used in accordance
  with the terms and conditions of a written license agreement with
  Synopsys, Inc. All other use, reproduction, or distribution of
  this software is strictly prohibited.
  Input File: q1.sp                                                             
  Command line options: /usr/local/Software/Hspice/hspice/P-2019.06-SP1-1/hspice/linux64/hspice -i q1.sp -o q1
  Start time: Sat Nov  2 01:35:07 2019
 lic:  
 lic: FLEXlm: SDK_12.3 
 lic: USER:   EE735_6              HOSTNAME: mcl16 
 lic: HOSTID: "001517a3883c"       PID:      24035 
 lic: Using FLEXlm license file: 
 lic: 27020@mcl16 
 lic: Checkout 1 hspice 
 lic: License/Maintenance for hspice will expire on 02-nov-2019/2019.06 
 lic: 1(in_use)/10(total) FLOATING license(s) on SERVER 27020@mcl16 
 lic:   
 **info** *pvaI* current limit stacksize=10485760, set new limit stacksize=62914560

 Loading pVA library q1.pvadir/pvaRTL_linux64.so...
1****** HSPICE -- P-2019.06-SP1-1 linux64 (Sep 27 2019) ******                  
 ******  
 *mos

 ****** circuit name directory
 circuit number to circuit name directory
   number circuitname                     definition         multiplier
        0 main circuit
        1 x1.                             simple_mos(va)     1.00 
 **info** *pvaI* Creating VA module (simple_mos) for instance X1 with gmd reduction

 **info** *pvaI*        termCount=4 diwSize=8 probeSize=13 Qsize=0 Isize=1

 End of GMD creation on Sat Nov  2 01:35:08 2019	GTM/In-use: 1.7500/0.6405 MB


  
      
 *****************************************************************
 ******  option summary
 ******
 runlvl  = 3         bypass  = 2.0000    
  Opening plot unit= 15
 file=q1.pa0

 End of pVA setup    on Sat Nov  2 01:35:08 2019	GTM/In-use: 1.7500/0.6744 MB


 Begin of pVA simulation on Sat Nov  2 01:35:08 2019	GTM/In-use: 1.7500/0.6744 MB


 ******
 *mos

 ****** dc transfer curves tnom=  25.000 temp=  25.000 ******
 ******
 *mos

 ****** dc transfer curves tnom=  25.000 temp=  25.000 ******
x

 volt         current    voltage   
             vd         3          
    0.          0.         1.0000  
    1.00000m    0.         1.0000  
    2.00000m    0.         1.0000  
    3.00000m    0.         1.0000  
    4.00000m    0.         1.0000  
    5.00000m    0.         1.0000  
    6.00000m    0.         1.0000  
    7.00000m    0.         1.0000  
    8.00000m    0.         1.0000  
    9.00000m    0.         1.0000  
   10.00000m    0.         1.0000  
   11.00000m    0.         1.0000  
   12.00000m    0.         1.0000  
   13.00000m    0.         1.0000  
   14.00000m    0.         1.0000  
   15.00000m    0.         1.0000  
   16.00000m    0.         1.0000  
   17.00000m    0.         1.0000  
   18.00000m    0.         1.0000  
   19.00000m    0.         1.0000  
   20.00000m    0.         1.0000  
   21.00000m    0.         1.0000  
   22.00000m    0.         1.0000  
   23.00000m    0.         1.0000  
   24.00000m    0.         1.0000  
   25.00000m    0.         1.0000  
   26.00000m    0.         1.0000  
   27.00000m    0.         1.0000  
   28.00000m    0.         1.0000  
   29.00000m    0.         1.0000  
   30.00000m    0.         1.0000  
   31.00000m    0.         1.0000  
   32.00000m    0.         1.0000  
   33.00000m    0.         1.0000  
   34.00000m    0.         1.0000  
   35.00000m    0.         1.0000  
   36.00000m    0.         1.0000  
   37.00000m    0.         1.0000  
   38.00000m    0.         1.0000  
   39.00000m    0.         1.0000  
   40.00000m    0.         1.0000  
   41.00000m    0.         1.0000  
   42.00000m    0.         1.0000  
   43.00000m    0.         1.0000  
   44.00000m    0.         1.0000  
   45.00000m    0.         1.0000  
   46.00000m    0.         1.0000  
   47.00000m    0.         1.0000  
   48.00000m    0.         1.0000  
   49.00000m    0.         1.0000  
   50.00000m    0.         1.0000  
   51.00000m    0.         1.0000  
   52.00000m    0.         1.0000  
   53.00000m    0.         1.0000  
   54.00000m    0.         1.0000  
   55.00000m    0.         1.0000  
   56.00000m    0.         1.0000  
   57.00000m    0.         1.0000  
   58.00000m    0.         1.0000  
   59.00000m    0.         1.0000  
   60.00000m    0.         1.0000  
   61.00000m    0.         1.0000  
   62.00000m    0.         1.0000  
   63.00000m    0.         1.0000  
   64.00000m    0.         1.0000  
   65.00000m    0.         1.0000  
   66.00000m    0.         1.0000  
   67.00000m    0.         1.0000  
   68.00000m    0.         1.0000  
   69.00000m    0.         1.0000  
   70.00000m    0.         1.0000  
   71.00000m    0.         1.0000  
   72.00000m    0.         1.0000  
   73.00000m    0.         1.0000  
   74.00000m    0.         1.0000  
   75.00000m    0.         1.0000  
   76.00000m    0.         1.0000  
   77.00000m    0.         1.0000  
   78.00000m    0.         1.0000  
   79.00000m    0.         1.0000  
   80.00000m    0.         1.0000  
   81.00000m    0.         1.0000  
   82.00000m    0.         1.0000  
   83.00000m    0.         1.0000  
   84.00000m    0.         1.0000  
   85.00000m    0.         1.0000  
   86.00000m    0.         1.0000  
   87.00000m    0.         1.0000  
   88.00000m    0.         1.0000  
   89.00000m    0.         1.0000  
   90.00000m    0.         1.0000  
   91.00000m    0.         1.0000  
   92.00000m    0.         1.0000  
   93.00000m    0.         1.0000  
   94.00000m    0.         1.0000  
   95.00000m    0.         1.0000  
   96.00000m    0.         1.0000  
   97.00000m    0.         1.0000  
   98.00000m    0.         1.0000  
   99.00000m    0.         1.0000  
  100.00000m    0.         1.0000  
  101.00000m    0.         1.0000  
  102.00000m    0.         1.0000  
  103.00000m    0.         1.0000  
  104.00000m    0.         1.0000  
  105.00000m    0.         1.0000  
  106.00000m    0.         1.0000  
  107.00000m    0.         1.0000  
  108.00000m    0.         1.0000  
  109.00000m    0.         1.0000  
  110.00000m    0.         1.0000  
  111.00000m    0.         1.0000  
  112.00000m    0.         1.0000  
  113.00000m    0.         1.0000  
  114.00000m    0.         1.0000  
  115.00000m    0.         1.0000  
  116.00000m    0.         1.0000  
  117.00000m    0.         1.0000  
  118.00000m    0.         1.0000  
  119.00000m    0.         1.0000  
  120.00000m    0.         1.0000  
  121.00000m    0.         1.0000  
  122.00000m    0.         1.0000  
  123.00000m    0.         1.0000  
  124.00000m    0.         1.0000  
  125.00000m    0.         1.0000  
  126.00000m    0.         1.0000  
  127.00000m    0.         1.0000  
  128.00000m    0.         1.0000  
  129.00000m    0.         1.0000  
  130.00000m    0.         1.0000  
  131.00000m    0.         1.0000  
  132.00000m    0.         1.0000  
  133.00000m    0.         1.0000  
  134.00000m    0.         1.0000  
  135.00000m    0.         1.0000  
  136.00000m    0.         1.0000  
  137.00000m    0.         1.0000  
  138.00000m    0.         1.0000  
  139.00000m    0.         1.0000  
  140.00000m    0.         1.0000  
  141.00000m    0.         1.0000  
  142.00000m    0.         1.0000  
  143.00000m    0.         1.0000  
  144.00000m    0.         1.0000  
  145.00000m    0.         1.0000  
  146.00000m    0.         1.0000  
  147.00000m    0.         1.0000  
  148.00000m    0.         1.0000  
  149.00000m    0.         1.0000  
  150.00000m    0.         1.0000  
  151.00000m    0.         1.0000  
  152.00000m    0.         1.0000  
  153.00000m    0.         1.0000  
  154.00000m    0.         1.0000  
  155.00000m    0.         1.0000  
  156.00000m    0.         1.0000  
  157.00000m    0.         1.0000  
  158.00000m    0.         1.0000  
  159.00000m    0.         1.0000  
  160.00000m    0.         1.0000  
  161.00000m    0.         1.0000  
  162.00000m    0.         1.0000  
  163.00000m    0.         1.0000  
  164.00000m    0.         1.0000  
  165.00000m    0.         1.0000  
  166.00000m    0.         1.0000  
  167.00000m    0.         1.0000  
  168.00000m    0.         1.0000  
  169.00000m    0.         1.0000  
  170.00000m    0.         1.0000  
  171.00000m    0.         1.0000  
  172.00000m    0.         1.0000  
  173.00000m    0.         1.0000  
  174.00000m    0.         1.0000  
  175.00000m    0.         1.0000  
  176.00000m    0.         1.0000  
  177.00000m    0.         1.0000  
  178.00000m    0.         1.0000  
  179.00000m    0.         1.0000  
  180.00000m    0.         1.0000  
  181.00000m    0.         1.0000  
  182.00000m    0.         1.0000  
  183.00000m    0.         1.0000  
  184.00000m    0.         1.0000  
  185.00000m    0.         1.0000  
  186.00000m    0.         1.0000  
  187.00000m    0.         1.0000  
  188.00000m    0.         1.0000  
  189.00000m    0.         1.0000  
  190.00000m    0.         1.0000  
  191.00000m    0.         1.0000  
  192.00000m    0.         1.0000  
  193.00000m    0.         1.0000  
  194.00000m    0.         1.0000  
  195.00000m    0.         1.0000  
  196.00000m    0.         1.0000  
  197.00000m    0.         1.0000  
  198.00000m    0.         1.0000  
  199.00000m    0.         1.0000  
  200.00000m    0.         1.0000  
  201.00000m    0.         1.0000  
  202.00000m    0.         1.0000  
  203.00000m    0.         1.0000  
  204.00000m    0.         1.0000  
  205.00000m    0.         1.0000  
  206.00000m    0.         1.0000  
  207.00000m    0.         1.0000  
  208.00000m    0.         1.0000  
  209.00000m    0.         1.0000  
  210.00000m    0.         1.0000  
  211.00000m    0.         1.0000  
  212.00000m    0.         1.0000  
  213.00000m    0.         1.0000  
  214.00000m    0.         1.0000  
  215.00000m    0.         1.0000  
  216.00000m    0.         1.0000  
  217.00000m    0.         1.0000  
  218.00000m    0.         1.0000  
  219.00000m    0.         1.0000  
  220.00000m    0.         1.0000  
  221.00000m    0.         1.0000  
  222.00000m    0.         1.0000  
  223.00000m    0.         1.0000  
  224.00000m    0.         1.0000  
  225.00000m    0.         1.0000  
  226.00000m    0.         1.0000  
  227.00000m    0.         1.0000  
  228.00000m    0.         1.0000  
  229.00000m    0.         1.0000  
  230.00000m    0.         1.0000  
  231.00000m    0.         1.0000  
  232.00000m    0.         1.0000  
  233.00000m    0.         1.0000  
  234.00000m    0.         1.0000  
  235.00000m    0.         1.0000  
  236.00000m    0.         1.0000  
  237.00000m    0.         1.0000  
  238.00000m    0.         1.0000  
  239.00000m    0.         1.0000  
  240.00000m    0.         1.0000  
  241.00000m    0.         1.0000  
  242.00000m    0.         1.0000  
  243.00000m    0.         1.0000  
  244.00000m    0.         1.0000  
  245.00000m    0.         1.0000  
  246.00000m    0.         1.0000  
  247.00000m    0.         1.0000  
  248.00000m    0.         1.0000  
  249.00000m    0.         1.0000  
  250.00000m    0.         1.0000  
  251.00000m    0.         1.0000  
  252.00000m    0.         1.0000  
  253.00000m    0.         1.0000  
  254.00000m    0.         1.0000  
  255.00000m    0.         1.0000  
  256.00000m    0.         1.0000  
  257.00000m    0.         1.0000  
  258.00000m    0.         1.0000  
  259.00000m    0.         1.0000  
  260.00000m    0.         1.0000  
  261.00000m    0.         1.0000  
  262.00000m    0.         1.0000  
  263.00000m    0.         1.0000  
  264.00000m    0.         1.0000  
  265.00000m    0.         1.0000  
  266.00000m    0.         1.0000  
  267.00000m    0.         1.0000  
  268.00000m    0.         1.0000  
  269.00000m    0.         1.0000  
  270.00000m    0.         1.0000  
  271.00000m    0.         1.0000  
  272.00000m    0.         1.0000  
  273.00000m    0.         1.0000  
  274.00000m    0.         1.0000  
  275.00000m    0.         1.0000  
  276.00000m    0.         1.0000  
  277.00000m    0.         1.0000  
  278.00000m    0.         1.0000  
  279.00000m    0.         1.0000  
  280.00000m    0.         1.0000  
  281.00000m    0.         1.0000  
  282.00000m    0.         1.0000  
  283.00000m    0.         1.0000  
  284.00000m    0.         1.0000  
  285.00000m    0.         1.0000  
  286.00000m    0.         1.0000  
  287.00000m    0.         1.0000  
  288.00000m    0.         1.0000  
  289.00000m    0.         1.0000  
  290.00000m    0.         1.0000  
  291.00000m    0.         1.0000  
  292.00000m    0.         1.0000  
  293.00000m    0.         1.0000  
  294.00000m    0.         1.0000  
  295.00000m    0.         1.0000  
  296.00000m    0.         1.0000  
  297.00000m    0.         1.0000  
  298.00000m    0.         1.0000  
  299.00000m    0.         1.0000  
  300.00000m    0.         1.0000  
  301.00000m    0.         1.0000  
  302.00000m    0.         1.0000  
  303.00000m    0.         1.0000  
  304.00000m    0.         1.0000  
  305.00000m    0.         1.0000  
  306.00000m    0.         1.0000  
  307.00000m    0.         1.0000  
  308.00000m    0.         1.0000  
  309.00000m    0.         1.0000  
  310.00000m    0.         1.0000  
  311.00000m    0.         1.0000  
  312.00000m    0.         1.0000  
  313.00000m    0.         1.0000  
  314.00000m    0.         1.0000  
  315.00000m    0.         1.0000  
  316.00000m    0.         1.0000  
  317.00000m    0.         1.0000  
  318.00000m    0.         1.0000  
  319.00000m    0.         1.0000  
  320.00000m    0.         1.0000  
  321.00000m    0.         1.0000  
  322.00000m    0.         1.0000  
  323.00000m    0.         1.0000  
  324.00000m    0.         1.0000  
  325.00000m    0.         1.0000  
  326.00000m    0.         1.0000  
  327.00000m    0.         1.0000  
  328.00000m    0.         1.0000  
  329.00000m    0.         1.0000  
  330.00000m    0.         1.0000  
  331.00000m    0.         1.0000  
  332.00000m    0.         1.0000  
  333.00000m    0.         1.0000  
  334.00000m    0.         1.0000  
  335.00000m    0.         1.0000  
  336.00000m    0.         1.0000  
  337.00000m    0.         1.0000  
  338.00000m    0.         1.0000  
  339.00000m    0.         1.0000  
  340.00000m    0.         1.0000  
  341.00000m    0.         1.0000  
  342.00000m    0.         1.0000  
  343.00000m    0.         1.0000  
  344.00000m    0.         1.0000  
  345.00000m    0.         1.0000  
  346.00000m    0.         1.0000  
  347.00000m    0.         1.0000  
  348.00000m    0.         1.0000  
  349.00000m    0.         1.0000  
  350.00000m    0.         1.0000  
  351.00000m    0.         1.0000  
  352.00000m    0.         1.0000  
  353.00000m    0.         1.0000  
  354.00000m    0.         1.0000  
  355.00000m    0.         1.0000  
  356.00000m    0.         1.0000  
  357.00000m    0.         1.0000  
  358.00000m    0.         1.0000  
  359.00000m    0.         1.0000  
  360.00000m    0.         1.0000  
  361.00000m    0.         1.0000  
  362.00000m    0.         1.0000  
  363.00000m    0.         1.0000  
  364.00000m    0.         1.0000  
  365.00000m    0.         1.0000  
  366.00000m    0.         1.0000  
  367.00000m    0.         1.0000  
  368.00000m    0.         1.0000  
  369.00000m    0.         1.0000  
  370.00000m    0.         1.0000  
  371.00000m    0.         1.0000  
  372.00000m    0.         1.0000  
  373.00000m    0.         1.0000  
  374.00000m    0.         1.0000  
  375.00000m    0.         1.0000  
  376.00000m    0.         1.0000  
  377.00000m    0.         1.0000  
  378.00000m    0.         1.0000  
  379.00000m    0.         1.0000  
  380.00000m    0.         1.0000  
  381.00000m    0.         1.0000  
  382.00000m    0.         1.0000  
  383.00000m    0.         1.0000  
  384.00000m    0.         1.0000  
  385.00000m    0.         1.0000  
  386.00000m    0.         1.0000  
  387.00000m    0.         1.0000  
  388.00000m    0.         1.0000  
  389.00000m    0.         1.0000  
  390.00000m    0.         1.0000  
  391.00000m    0.         1.0000  
  392.00000m    0.         1.0000  
  393.00000m    0.         1.0000  
  394.00000m    0.         1.0000  
  395.00000m    0.         1.0000  
  396.00000m    0.         1.0000  
  397.00000m    0.         1.0000  
  398.00000m    0.         1.0000  
  399.00000m    0.         1.0000  
  400.00000m    0.         1.0000  
  401.00000m -120.8025p    1.0000  
  402.00000m -483.2100p    1.0000  
  403.00000m   -1.0872n    1.0000  
  404.00000m   -1.9328n    1.0000  
  405.00000m   -3.0201n    1.0000  
  406.00000m   -4.3489n    1.0000  
  407.00000m   -5.9193n    1.0000  
  408.00000m   -7.7314n    1.0000  
  409.00000m   -9.7850n    1.0000  
  410.00000m  -12.0803n    1.0000  
  411.00000m  -14.6171n    1.0000  
  412.00000m  -17.3956n    1.0000  
  413.00000m  -20.4156n    1.0000  
  414.00000m  -23.6773n    1.0000  
  415.00000m  -27.1806n    1.0000  
  416.00000m  -30.9254n    1.0000  
  417.00000m  -34.9119n    1.0000  
  418.00000m  -39.1400n    1.0000  
  419.00000m  -43.6097n    1.0000  
  420.00000m  -48.3210n    1.0000  
  421.00000m  -53.2739n    1.0000  
  422.00000m  -58.4684n    1.0000  
  423.00000m  -63.9045n    1.0000  
  424.00000m  -69.5822n    1.0000  
  425.00000m  -75.5016n    1.0000  
  426.00000m  -81.6625n    1.0000  
  427.00000m  -88.0650n    1.0000  
  428.00000m  -94.7092n    1.0000  
  429.00000m -101.5949n    1.0000  
  430.00000m -108.7222n    1.0000  
  431.00000m -116.0912n    1.0000  
  432.00000m -123.7018n    1.0000  
  433.00000m -131.5539n    1.0000  
  434.00000m -139.6477n    1.0000  
  435.00000m -147.9831n    1.0000  
  436.00000m -156.5600n    1.0000  
  437.00000m -165.3786n    1.0000  
  438.00000m -174.4388n    1.0000  
  439.00000m -183.7406n    1.0000  
  440.00000m -193.2840n    1.0000  
  441.00000m -203.0690n    1.0000  
  442.00000m -213.0956n    1.0000  
  443.00000m -223.3638n    1.0000  
  444.00000m -233.8736n    1.0000  
  445.00000m -244.6251n    1.0000  
  446.00000m -255.6181n    1.0000  
  447.00000m -266.8527n    1.0000  
  448.00000m -278.3290n    1.0000  
  449.00000m -290.0468n    1.0000  
  450.00000m -302.0062n    1.0000  
  451.00000m -314.2073n    1.0000  
  452.00000m -326.6500n    1.0000  
  453.00000m -339.3342n    1.0000  
  454.00000m -352.2601n    1.0000  
  455.00000m -365.4276n    1.0000  
  456.00000m -378.8366n    1.0000  
  457.00000m -392.4873n    1.0000  
  458.00000m -406.3796n    1.0000  
  459.00000m -420.5135n    1.0000  
  460.00000m -434.8890n    1.0000  
  461.00000m -449.5061n    1.0000  
  462.00000m -464.3648n    1.0000  
  463.00000m -479.4651n    1.0000  
  464.00000m -494.8070n    1.0000  
  465.00000m -510.3906n    1.0000  
  466.00000m -526.2157n    1.0000  
  467.00000m -542.2824n    1.0000  
  468.00000m -558.5908n    1.0000  
  469.00000m -575.1407n    1.0000  
  470.00000m -591.9323n    1.0000  
  471.00000m -608.9654n    1.0000  
  472.00000m -626.2402n    1.0000  
  473.00000m -643.7565n    1.0000  
  474.00000m -661.5145n    1.0000  
  475.00000m -679.5141n    1.0000  
  476.00000m -697.7552n    1.0000  
  477.00000m -716.2380n    1.0000  
  478.00000m -734.9624n    1.0000  
  479.00000m -753.9284n    1.0000  
  480.00000m -773.1360n    1.0000  
  481.00000m -792.5852n    1.0000  
  482.00000m -812.2760n    1.0000  
  483.00000m -832.2084n    1.0000  
  484.00000m -852.3824n    1.0000  
  485.00000m -872.7981n    1.0000  
  486.00000m -893.4553n    1.0000  
  487.00000m -914.3541n    1.0000  
  488.00000m -935.4946n    1.0000  
  489.00000m -956.8766n    1.0000  
  490.00000m -978.5002n    1.0000  
  491.00000m   -1.0004u    1.0000  
  492.00000m   -1.0225u    1.0000  
  493.00000m   -1.0448u    1.0000  
  494.00000m   -1.0674u    1.0000  
  495.00000m   -1.0902u    1.0000  
  496.00000m   -1.1133u    1.0000  
  497.00000m   -1.1366u    1.0000  
  498.00000m   -1.1602u    1.0000  
  499.00000m   -1.1840u    1.0000  
  500.00000m   -1.2080u    1.0000  
  501.00000m   -1.2323u    1.0000  
  502.00000m   -1.2568u    1.0000  
  503.00000m   -1.2816u    1.0000  
  504.00000m   -1.3066u    1.0000  
  505.00000m   -1.3318u    1.0000  
  506.00000m   -1.3573u    1.0000  
  507.00000m   -1.3831u    1.0000  
  508.00000m   -1.4090u    1.0000  
  509.00000m   -1.4353u    1.0000  
  510.00000m   -1.4617u    1.0000  
  511.00000m   -1.4884u    1.0000  
  512.00000m   -1.5153u    1.0000  
  513.00000m   -1.5425u    1.0000  
  514.00000m   -1.5699u    1.0000  
  515.00000m   -1.5976u    1.0000  
  516.00000m   -1.6255u    1.0000  
  517.00000m   -1.6537u    1.0000  
  518.00000m   -1.6821u    1.0000  
  519.00000m   -1.7107u    1.0000  
  520.00000m   -1.7396u    1.0000  
  521.00000m   -1.7687u    1.0000  
  522.00000m   -1.7980u    1.0000  
  523.00000m   -1.8276u    1.0000  
  524.00000m   -1.8575u    1.0000  
  525.00000m   -1.8875u    1.0000  
  526.00000m   -1.9179u    1.0000  
  527.00000m   -1.9484u    1.0000  
  528.00000m   -1.9792u    1.0000  
  529.00000m   -2.0103u    1.0000  
  530.00000m   -2.0416u    1.0000  
  531.00000m   -2.0731u    1.0000  
  532.00000m   -2.1049u    1.0000  
  533.00000m   -2.1369u    1.0000  
  534.00000m   -2.1691u    1.0000  
  535.00000m   -2.2016u    1.0000  
  536.00000m   -2.2344u    1.0000  
  537.00000m   -2.2673u    1.0000  
  538.00000m   -2.3006u    1.0000  
  539.00000m   -2.3340u    1.0000  
  540.00000m   -2.3677u    1.0000  
  541.00000m   -2.4017u    1.0000  
  542.00000m   -2.4359u    1.0000  
  543.00000m   -2.4703u    1.0000  
  544.00000m   -2.5050u    1.0000  
  545.00000m   -2.5399u    1.0000  
  546.00000m   -2.5750u    1.0000  
  547.00000m   -2.6104u    1.0000  
  548.00000m   -2.6461u    1.0000  
  549.00000m   -2.6819u    1.0000  
  550.00000m   -2.7181u    1.0000  
  551.00000m   -2.7544u    1.0000  
  552.00000m   -2.7910u    1.0000  
  553.00000m   -2.8279u    1.0000  
  554.00000m   -2.8650u    1.0000  
  555.00000m   -2.9023u    1.0000  
  556.00000m   -2.9398u    1.0000  
  557.00000m   -2.9777u    1.0000  
  558.00000m   -3.0157u    1.0000  
  559.00000m   -3.0540u    1.0000  
  560.00000m   -3.0925u    1.0000  
  561.00000m   -3.1313u    1.0000  
  562.00000m   -3.1703u    1.0000  
  563.00000m   -3.2096u    1.0000  
  564.00000m   -3.2491u    1.0000  
  565.00000m   -3.2888u    1.0000  
  566.00000m   -3.3288u    1.0000  
  567.00000m   -3.3691u    1.0000  
  568.00000m   -3.4095u    1.0000  
  569.00000m   -3.4502u    1.0000  
  570.00000m   -3.4912u    1.0000  
  571.00000m   -3.5324u    1.0000  
  572.00000m   -3.5738u    1.0000  
  573.00000m   -3.6155u    1.0000  
  574.00000m   -3.6574u    1.0000  
  575.00000m   -3.6996u    1.0000  
  576.00000m   -3.7420u    1.0000  
  577.00000m   -3.7846u    1.0000  
  578.00000m   -3.8275u    1.0000  
  579.00000m   -3.8706u    1.0000  
  580.00000m   -3.9140u    1.0000  
  581.00000m   -3.9576u    1.0000  
  582.00000m   -4.0015u    1.0000  
  583.00000m   -4.0456u    1.0000  
  584.00000m   -4.0899u    1.0000  
  585.00000m   -4.1345u    1.0000  
  586.00000m   -4.1793u    1.0000  
  587.00000m   -4.2243u    1.0000  
  588.00000m   -4.2696u    1.0000  
  589.00000m   -4.3152u    1.0000  
  590.00000m   -4.3610u    1.0000  
  591.00000m   -4.4070u    1.0000  
  592.00000m   -4.4533u    1.0000  
  593.00000m   -4.4998u    1.0000  
  594.00000m   -4.5465u    1.0000  
  595.00000m   -4.5935u    1.0000  
  596.00000m   -4.6407u    1.0000  
  597.00000m   -4.6882u    1.0000  
  598.00000m   -4.7359u    1.0000  
  599.00000m   -4.7839u    1.0000  
  600.00000m   -4.8321u    1.0000  
  601.00000m   -4.8805u    1.0000  
  602.00000m   -4.9292u    1.0000  
  603.00000m   -4.9782u    1.0000  
  604.00000m   -5.0273u    1.0000  
  605.00000m   -5.0767u    1.0000  
  606.00000m   -5.1264u    1.0000  
  607.00000m   -5.1763u    1.0000  
  608.00000m   -5.2264u    1.0000  
  609.00000m   -5.2768u    1.0000  
  610.00000m   -5.3274u    1.0000  
  611.00000m   -5.3782u    1.0000  
  612.00000m   -5.4293u    1.0000  
  613.00000m   -5.4807u    1.0000  
  614.00000m   -5.5323u    1.0000  
  615.00000m   -5.5841u    1.0000  
  616.00000m   -5.6362u    1.0000  
  617.00000m   -5.6885u    1.0000  
  618.00000m   -5.7410u    1.0000  
  619.00000m   -5.7938u    1.0000  
  620.00000m   -5.8468u    1.0000  
  621.00000m   -5.9001u    1.0000  
  622.00000m   -5.9536u    1.0000  
  623.00000m   -6.0074u    1.0000  
  624.00000m   -6.0614u    1.0000  
  625.00000m   -6.1156u    1.0000  
  626.00000m   -6.1701u    1.0000  
  627.00000m   -6.2248u    1.0000  
  628.00000m   -6.2798u    1.0000  
  629.00000m   -6.3350u    1.0000  
  630.00000m   -6.3905u    1.0000  
  631.00000m   -6.4461u    1.0000  
  632.00000m   -6.5021u    1.0000  
  633.00000m   -6.5582u    1.0000  
  634.00000m   -6.6147u    1.0000  
  635.00000m   -6.6713u    1.0000  
  636.00000m   -6.7282u    1.0000  
  637.00000m   -6.7854u    1.0000  
  638.00000m   -6.8427u    1.0000  
  639.00000m   -6.9004u    1.0000  
  640.00000m   -6.9582u    1.0000  
  641.00000m   -7.0163u    1.0000  
  642.00000m   -7.0747u    1.0000  
  643.00000m   -7.1333u    1.0000  
  644.00000m   -7.1921u    1.0000  
  645.00000m   -7.2512u    1.0000  
  646.00000m   -7.3105u    1.0000  
  647.00000m   -7.3700u    1.0000  
  648.00000m   -7.4298u    1.0000  
  649.00000m   -7.4899u    1.0000  
  650.00000m   -7.5502u    1.0000  
  651.00000m   -7.6107u    1.0000  
  652.00000m   -7.6714u    1.0000  
  653.00000m   -7.7324u    1.0000  
  654.00000m   -7.7937u    1.0000  
  655.00000m   -7.8552u    1.0000  
  656.00000m   -7.9169u    1.0000  
  657.00000m   -7.9789u    1.0000  
  658.00000m   -8.0411u    1.0000  
  659.00000m   -8.1036u    1.0000  
  660.00000m   -8.1662u    1.0000  
  661.00000m   -8.2292u    1.0000  
  662.00000m   -8.2924u    1.0000  
  663.00000m   -8.3558u    1.0000  
  664.00000m   -8.4195u    1.0000  
  665.00000m   -8.4834u    1.0000  
  666.00000m   -8.5475u    1.0000  
  667.00000m   -8.6119u    1.0000  
  668.00000m   -8.6765u    1.0000  
  669.00000m   -8.7414u    1.0000  
  670.00000m   -8.8065u    1.0000  
  671.00000m   -8.8719u    1.0000  
  672.00000m   -8.9375u    1.0000  
  673.00000m   -9.0033u    1.0000  
  674.00000m   -9.0694u    1.0000  
  675.00000m   -9.1357u    1.0000  
  676.00000m   -9.2023u    1.0000  
  677.00000m   -9.2691u    1.0000  
  678.00000m   -9.3361u    1.0000  
  679.00000m   -9.4034u    1.0000  
  680.00000m   -9.4709u    1.0000  
  681.00000m   -9.5387u    1.0000  
  682.00000m   -9.6067u    1.0000  
  683.00000m   -9.6750u    1.0000  
  684.00000m   -9.7434u    1.0000  
  685.00000m   -9.8122u    1.0000  
  686.00000m   -9.8812u    1.0000  
  687.00000m   -9.9504u    1.0000  
  688.00000m  -10.0198u    1.0000  
  689.00000m  -10.0895u    1.0000  
  690.00000m  -10.1595u    1.0000  
  691.00000m  -10.2297u    1.0000  
  692.00000m  -10.3001u    1.0000  
  693.00000m  -10.3708u    1.0000  
  694.00000m  -10.4417u    1.0000  
  695.00000m  -10.5128u    1.0000  
  696.00000m  -10.5842u    1.0000  
  697.00000m  -10.6559u    1.0000  
  698.00000m  -10.7277u    1.0000  
  699.00000m  -10.7999u    1.0000  
  700.00000m  -10.8722u    1.0000  
  701.00000m  -10.9448u    1.0000  
  702.00000m  -11.0177u    1.0000  
  703.00000m  -11.0908u    1.0000  
  704.00000m  -11.1641u    1.0000  
  705.00000m  -11.2377u    1.0000  
  706.00000m  -11.3115u    1.0000  
  707.00000m  -11.3855u    1.0000  
  708.00000m  -11.4598u    1.0000  
  709.00000m  -11.5343u    1.0000  
  710.00000m  -11.6091u    1.0000  
  711.00000m  -11.6841u    1.0000  
  712.00000m  -11.7594u    1.0000  
  713.00000m  -11.8349u    1.0000  
  714.00000m  -11.9106u    1.0000  
  715.00000m  -11.9866u    1.0000  
  716.00000m  -12.0629u    1.0000  
  717.00000m  -12.1393u    1.0000  
  718.00000m  -12.2160u    1.0000  
  719.00000m  -12.2930u    1.0000  
  720.00000m  -12.3702u    1.0000  
  721.00000m  -12.4476u    1.0000  
  722.00000m  -12.5253u    1.0000  
  723.00000m  -12.6032u    1.0000  
  724.00000m  -12.6814u    1.0000  
  725.00000m  -12.7598u    1.0000  
  726.00000m  -12.8384u    1.0000  
  727.00000m  -12.9173u    1.0000  
  728.00000m  -12.9964u    1.0000  
  729.00000m  -13.0758u    1.0000  
  730.00000m  -13.1554u    1.0000  
  731.00000m  -13.2352u    1.0000  
  732.00000m  -13.3153u    1.0000  
  733.00000m  -13.3957u    1.0000  
  734.00000m  -13.4762u    1.0000  
  735.00000m  -13.5571u    1.0000  
  736.00000m  -13.6381u    1.0000  
  737.00000m  -13.7194u    1.0000  
  738.00000m  -13.8010u    1.0000  
  739.00000m  -13.8827u    1.0000  
  740.00000m  -13.9648u    1.0000  
  741.00000m  -14.0470u    1.0000  
  742.00000m  -14.1295u    1.0000  
  743.00000m  -14.2123u    1.0000  
  744.00000m  -14.2953u    1.0000  
  745.00000m  -14.3785u    1.0000  
  746.00000m  -14.4620u    1.0000  
  747.00000m  -14.5457u    1.0000  
  748.00000m  -14.6297u    1.0000  
  749.00000m  -14.7139u    1.0000  
  750.00000m  -14.7983u    1.0000  
  751.00000m  -14.8830u    1.0000  
  752.00000m  -14.9679u    1.0000  
  753.00000m  -15.0531u    1.0000  
  754.00000m  -15.1385u    1.0000  
  755.00000m  -15.2241u    1.0000  
  756.00000m  -15.3100u    1.0000  
  757.00000m  -15.3962u    1.0000  
  758.00000m  -15.4825u    1.0000  
  759.00000m  -15.5691u    1.0000  
  760.00000m  -15.6560u    1.0000  
  761.00000m  -15.7431u    1.0000  
  762.00000m  -15.8304u    1.0000  
  763.00000m  -15.9180u    1.0000  
  764.00000m  -16.0058u    1.0000  
  765.00000m  -16.0939u    1.0000  
  766.00000m  -16.1822u    1.0000  
  767.00000m  -16.2708u    1.0000  
  768.00000m  -16.3596u    1.0000  
  769.00000m  -16.4486u    1.0000  
  770.00000m  -16.5379u    1.0000  
  771.00000m  -16.6274u    1.0000  
  772.00000m  -16.7171u    1.0000  
  773.00000m  -16.8071u    1.0000  
  774.00000m  -16.8974u    1.0000  
  775.00000m  -16.9879u    1.0000  
  776.00000m  -17.0786u    1.0000  
  777.00000m  -17.1695u    1.0000  
  778.00000m  -17.2607u    1.0000  
  779.00000m  -17.3522u    1.0000  
  780.00000m  -17.4439u    1.0000  
  781.00000m  -17.5358u    1.0000  
  782.00000m  -17.6280u    1.0000  
  783.00000m  -17.7204u    1.0000  
  784.00000m  -17.8131u    1.0000  
  785.00000m  -17.9060u    1.0000  
  786.00000m  -17.9991u    1.0000  
  787.00000m  -18.0925u    1.0000  
  788.00000m  -18.1861u    1.0000  
  789.00000m  -18.2800u    1.0000  
  790.00000m  -18.3741u    1.0000  
  791.00000m  -18.4684u    1.0000  
  792.00000m  -18.5630u    1.0000  
  793.00000m  -18.6578u    1.0000  
  794.00000m  -18.7529u    1.0000  
  795.00000m  -18.8482u    1.0000  
  796.00000m  -18.9438u    1.0000  
  797.00000m  -19.0396u    1.0000  
  798.00000m  -19.1356u    1.0000  
  799.00000m  -19.2319u    1.0000  
  800.00000m  -19.3284u    1.0000  
  801.00000m  -19.4252u    1.0000  
  802.00000m  -19.5222u    1.0000  
  803.00000m  -19.6194u    1.0000  
  804.00000m  -19.7169u    1.0000  
  805.00000m  -19.8146u    1.0000  
  806.00000m  -19.9126u    1.0000  
  807.00000m  -20.0108u    1.0000  
  808.00000m  -20.1093u    1.0000  
  809.00000m  -20.2080u    1.0000  
  810.00000m  -20.3069u    1.0000  
  811.00000m  -20.4061u    1.0000  
  812.00000m  -20.5055u    1.0000  
  813.00000m  -20.6052u    1.0000  
  814.00000m  -20.7051u    1.0000  
  815.00000m  -20.8052u    1.0000  
  816.00000m  -20.9056u    1.0000  
  817.00000m  -21.0062u    1.0000  
  818.00000m  -21.1071u    1.0000  
  819.00000m  -21.2082u    1.0000  
  820.00000m  -21.3096u    1.0000  
  821.00000m  -21.4112u    1.0000  
  822.00000m  -21.5130u    1.0000  
  823.00000m  -21.6151u    1.0000  
  824.00000m  -21.7174u    1.0000  
  825.00000m  -21.8200u    1.0000  
  826.00000m  -21.9228u    1.0000  
  827.00000m  -22.0258u    1.0000  
  828.00000m  -22.1291u    1.0000  
  829.00000m  -22.2326u    1.0000  
  830.00000m  -22.3364u    1.0000  
  831.00000m  -22.4404u    1.0000  
  832.00000m  -22.5446u    1.0000  
  833.00000m  -22.6491u    1.0000  
  834.00000m  -22.7539u    1.0000  
  835.00000m  -22.8589u    1.0000  
  836.00000m  -22.9641u    1.0000  
  837.00000m  -23.0695u    1.0000  
  838.00000m  -23.1752u    1.0000  
  839.00000m  -23.2812u    1.0000  
  840.00000m  -23.3874u    1.0000  
  841.00000m  -23.4938u    1.0000  
  842.00000m  -23.6005u    1.0000  
  843.00000m  -23.7074u    1.0000  
  844.00000m  -23.8145u    1.0000  
  845.00000m  -23.9219u    1.0000  
  846.00000m  -24.0296u    1.0000  
  847.00000m  -24.1374u    1.0000  
  848.00000m  -24.2455u    1.0000  
  849.00000m  -24.3539u    1.0000  
  850.00000m  -24.4625u    1.0000  
  851.00000m  -24.5713u    1.0000  
  852.00000m  -24.6804u    1.0000  
  853.00000m  -24.7898u    1.0000  
  854.00000m  -24.8993u    1.0000  
  855.00000m  -25.0091u    1.0000  
  856.00000m  -25.1192u    1.0000  
  857.00000m  -25.2295u    1.0000  
  858.00000m  -25.3400u    1.0000  
  859.00000m  -25.4508u    1.0000  
  860.00000m  -25.5618u    1.0000  
  861.00000m  -25.6731u    1.0000  
  862.00000m  -25.7846u    1.0000  
  863.00000m  -25.8963u    1.0000  
  864.00000m  -26.0083u    1.0000  
  865.00000m  -26.1205u    1.0000  
  866.00000m  -26.2330u    1.0000  
  867.00000m  -26.3457u    1.0000  
  868.00000m  -26.4586u    1.0000  
  869.00000m  -26.5718u    1.0000  
  870.00000m  -26.6853u    1.0000  
  871.00000m  -26.7989u    1.0000  
  872.00000m  -26.9129u    1.0000  
  873.00000m  -27.0270u    1.0000  
  874.00000m  -27.1414u    1.0000  
  875.00000m  -27.2561u    1.0000  
  876.00000m  -27.3709u    1.0000  
  877.00000m  -27.4861u    1.0000  
  878.00000m  -27.6014u    1.0000  
  879.00000m  -27.7170u    1.0000  
  880.00000m  -27.8329u    1.0000  
  881.00000m  -27.9490u    1.0000  
  882.00000m  -28.0653u    1.0000  
  883.00000m  -28.1819u    1.0000  
  884.00000m  -28.2987u    1.0000  
  885.00000m  -28.4158u    1.0000  
  886.00000m  -28.5331u    1.0000  
  887.00000m  -28.6506u    1.0000  
  888.00000m  -28.7684u    1.0000  
  889.00000m  -28.8864u    1.0000  
  890.00000m  -29.0047u    1.0000  
  891.00000m  -29.1232u    1.0000  
  892.00000m  -29.2419u    1.0000  
  893.00000m  -29.3609u    1.0000  
  894.00000m  -29.4802u    1.0000  
  895.00000m  -29.5996u    1.0000  
  896.00000m  -29.7193u    1.0000  
  897.00000m  -29.8393u    1.0000  
  898.00000m  -29.9595u    1.0000  
  899.00000m  -30.0799u    1.0000  
  900.00000m  -30.2006u    1.0000  
  901.00000m  -30.3215u    1.0000  
  902.00000m  -30.4427u    1.0000  
  903.00000m  -30.5641u    1.0000  
  904.00000m  -30.6858u    1.0000  
  905.00000m  -30.8077u    1.0000  
  906.00000m  -30.9298u    1.0000  
  907.00000m  -31.0522u    1.0000  
  908.00000m  -31.1748u    1.0000  
  909.00000m  -31.2976u    1.0000  
  910.00000m  -31.4207u    1.0000  
  911.00000m  -31.5441u    1.0000  
  912.00000m  -31.6677u    1.0000  
  913.00000m  -31.7915u    1.0000  
  914.00000m  -31.9155u    1.0000  
  915.00000m  -32.0398u    1.0000  
  916.00000m  -32.1644u    1.0000  
  917.00000m  -32.2892u    1.0000  
  918.00000m  -32.4142u    1.0000  
  919.00000m  -32.5395u    1.0000  
  920.00000m  -32.6650u    1.0000  
  921.00000m  -32.7908u    1.0000  
  922.00000m  -32.9167u    1.0000  
  923.00000m  -33.0430u    1.0000  
  924.00000m  -33.1695u    1.0000  
  925.00000m  -33.2962u    1.0000  
  926.00000m  -33.4232u    1.0000  
  927.00000m  -33.5504u    1.0000  
  928.00000m  -33.6778u    1.0000  
  929.00000m  -33.8055u    1.0000  
  930.00000m  -33.9334u    1.0000  
  931.00000m  -34.0616u    1.0000  
  932.00000m  -34.1900u    1.0000  
  933.00000m  -34.3187u    1.0000  
  934.00000m  -34.4476u    1.0000  
  935.00000m  -34.5767u    1.0000  
  936.00000m  -34.7061u    1.0000  
  937.00000m  -34.8357u    1.0000  
  938.00000m  -34.9656u    1.0000  
  939.00000m  -35.0957u    1.0000  
  940.00000m  -35.2260u    1.0000  
  941.00000m  -35.3566u    1.0000  
  942.00000m  -35.4874u    1.0000  
  943.00000m  -35.6185u    1.0000  
  944.00000m  -35.7498u    1.0000  
  945.00000m  -35.8814u    1.0000  
  946.00000m  -36.0132u    1.0000  
  947.00000m  -36.1452u    1.0000  
  948.00000m  -36.2775u    1.0000  
  949.00000m  -36.4100u    1.0000  
  950.00000m  -36.5428u    1.0000  
  951.00000m  -36.6758u    1.0000  
  952.00000m  -36.8090u    1.0000  
  953.00000m  -36.9425u    1.0000  
  954.00000m  -37.0762u    1.0000  
  955.00000m  -37.2102u    1.0000  
  956.00000m  -37.3444u    1.0000  
  957.00000m  -37.4789u    1.0000  
  958.00000m  -37.6135u    1.0000  
  959.00000m  -37.7485u    1.0000  
  960.00000m  -37.8837u    1.0000  
  961.00000m  -38.0191u    1.0000  
  962.00000m  -38.1547u    1.0000  
  963.00000m  -38.2906u    1.0000  
  964.00000m  -38.4268u    1.0000  
  965.00000m  -38.5632u    1.0000  
  966.00000m  -38.6998u    1.0000  
  967.00000m  -38.8367u    1.0000  
  968.00000m  -38.9738u    1.0000  
  969.00000m  -39.1111u    1.0000  
  970.00000m  -39.2487u    1.0000  
  971.00000m  -39.3866u    1.0000  
  972.00000m  -39.5246u    1.0000  
  973.00000m  -39.6630u    1.0000  
  974.00000m  -39.8015u    1.0000  
  975.00000m  -39.9403u    1.0000  
  976.00000m  -40.0794u    1.0000  
  977.00000m  -40.2187u    1.0000  
  978.00000m  -40.3582u    1.0000  
  979.00000m  -40.4980u    1.0000  
  980.00000m  -40.6380u    1.0000  
  981.00000m  -40.7782u    1.0000  
  982.00000m  -40.9187u    1.0000  
  983.00000m  -41.0594u    1.0000  
  984.00000m  -41.2004u    1.0000  
  985.00000m  -41.3416u    1.0000  
  986.00000m  -41.4831u    1.0000  
  987.00000m  -41.6248u    1.0000  
  988.00000m  -41.7667u    1.0000  
  989.00000m  -41.9089u    1.0000  
  990.00000m  -42.0514u    1.0000  
  991.00000m  -42.1940u    1.0000  
  992.00000m  -42.3369u    1.0000  
  993.00000m  -42.4801u    1.0000  
  994.00000m  -42.6235u    1.0000  
  995.00000m  -42.7671u    1.0000  
  996.00000m  -42.9110u    1.0000  
  997.00000m  -43.0551u    1.0000  
  998.00000m  -43.1995u    1.0000  
  999.00000m  -43.3441u    1.0000  
    1.00000   -43.4889u    1.0000  
    1.00100   -43.6340u    1.0000  
    1.00200   -43.7793u    1.0000  
    1.00300   -43.9249u    1.0000  
    1.00400   -44.0707u    1.0000  
    1.00500   -44.2167u    1.0000  
    1.00600   -44.3630u    1.0000  
    1.00700   -44.5096u    1.0000  
    1.00800   -44.6563u    1.0000  
    1.00900   -44.8034u    1.0000  
    1.01000   -44.9506u    1.0000  
    1.01100   -45.0981u    1.0000  
    1.01200   -45.2459u    1.0000  
    1.01300   -45.3938u    1.0000  
    1.01400   -45.5421u    1.0000  
    1.01500   -45.6905u    1.0000  
    1.01600   -45.8392u    1.0000  
    1.01700   -45.9882u    1.0000  
    1.01800   -46.1374u    1.0000  
    1.01900   -46.2868u    1.0000  
    1.02000   -46.4365u    1.0000  
    1.02100   -46.5864u    1.0000  
    1.02200   -46.7366u    1.0000  
    1.02300   -46.8870u    1.0000  
    1.02400   -47.0376u    1.0000  
    1.02500   -47.1885u    1.0000  
    1.02600   -47.3396u    1.0000  
    1.02700   -47.4910u    1.0000  
    1.02800   -47.6426u    1.0000  
    1.02900   -47.7944u    1.0000  
    1.03000   -47.9465u    1.0000  
    1.03100   -48.0988u    1.0000  
    1.03200   -48.2514u    1.0000  
    1.03300   -48.4042u    1.0000  
    1.03400   -48.5573u    1.0000  
    1.03500   -48.7106u    1.0000  
    1.03600   -48.8641u    1.0000  
    1.03700   -49.0179u    1.0000  
    1.03800   -49.1719u    1.0000  
    1.03900   -49.3262u    1.0000  
    1.04000   -49.4807u    1.0000  
    1.04100   -49.6355u    1.0000  
    1.04200   -49.7904u    1.0000  
    1.04300   -49.9457u    1.0000  
    1.04400   -50.1011u    1.0000  
    1.04500   -50.2569u    1.0000  
    1.04600   -50.4128u    1.0000  
    1.04700   -50.5690u    1.0000  
    1.04800   -50.7255u    1.0000  
    1.04900   -50.8821u    1.0000  
    1.05000   -51.0391u    1.0000  
    1.05100   -51.1962u    1.0000  
    1.05200   -51.3536u    1.0000  
    1.05300   -51.5113u    1.0000  
    1.05400   -51.6692u    1.0000  
    1.05500   -51.8273u    1.0000  
    1.05600   -51.9857u    1.0000  
    1.05700   -52.1443u    1.0000  
    1.05800   -52.3031u    1.0000  
    1.05900   -52.4622u    1.0000  
    1.06000   -52.6216u    1.0000  
    1.06100   -52.7811u    1.0000  
    1.06200   -52.9410u    1.0000  
    1.06300   -53.1010u    1.0000  
    1.06400   -53.2613u    1.0000  
    1.06500   -53.4219u    1.0000  
    1.06600   -53.5827u    1.0000  
    1.06700   -53.7437u    1.0000  
    1.06800   -53.9050u    1.0000  
    1.06900   -54.0665u    1.0000  
    1.07000   -54.2282u    1.0000  
    1.07100   -54.3902u    1.0000  
    1.07200   -54.5525u    1.0000  
    1.07300   -54.7150u    1.0000  
    1.07400   -54.8777u    1.0000  
    1.07500   -55.0406u    1.0000  
    1.07600   -55.2038u    1.0000  
    1.07700   -55.3673u    1.0000  
    1.07800   -55.5310u    1.0000  
    1.07900   -55.6949u    1.0000  
    1.08000   -55.8591u    1.0000  
    1.08100   -56.0235u    1.0000  
    1.08200   -56.1881u    1.0000  
    1.08300   -56.3530u    1.0000  
    1.08400   -56.5182u    1.0000  
    1.08500   -56.6836u    1.0000  
    1.08600   -56.8492u    1.0000  
    1.08700   -57.0150u    1.0000  
    1.08800   -57.1811u    1.0000  
    1.08900   -57.3475u    1.0000  
    1.09000   -57.5141u    1.0000  
    1.09100   -57.6809u    1.0000  
    1.09200   -57.8480u    1.0000  
    1.09300   -58.0153u    1.0000  
    1.09400   -58.1828u    1.0000  
    1.09500   -58.3506u    1.0000  
    1.09600   -58.5187u    1.0000  
    1.09700   -58.6869u    1.0000  
    1.09800   -58.8555u    1.0000  
    1.09900   -59.0242u    1.0000  
    1.10000   -59.1932u    1.0000  
    1.10100   -59.3625u    1.0000  
    1.10200   -59.5320u    1.0000  
    1.10300   -59.7017u    1.0000  
    1.10400   -59.8717u    1.0000  
    1.10500   -60.0419u    1.0000  
    1.10600   -60.2123u    1.0000  
    1.10700   -60.3830u    1.0000  
    1.10800   -60.5539u    1.0000  
    1.10900   -60.7251u    1.0000  
    1.11000   -60.8965u    1.0000  
    1.11100   -61.0682u    1.0000  
    1.11200   -61.2401u    1.0000  
    1.11300   -61.4122u    1.0000  
    1.11400   -61.5846u    1.0000  
    1.11500   -61.7573u    1.0000  
    1.11600   -61.9301u    1.0000  
    1.11700   -62.1032u    1.0000  
    1.11800   -62.2766u    1.0000  
    1.11900   -62.4502u    1.0000  
    1.12000   -62.6240u    1.0000  
    1.12100   -62.7981u    1.0000  
    1.12200   -62.9724u    1.0000  
    1.12300   -63.1470u    1.0000  
    1.12400   -63.3218u    1.0000  
    1.12500   -63.4968u    1.0000  
    1.12600   -63.6721u    1.0000  
    1.12700   -63.8476u    1.0000  
    1.12800   -64.0234u    1.0000  
    1.12900   -64.1994u    1.0000  
    1.13000   -64.3757u    1.0000  
    1.13100   -64.5521u    1.0000  
    1.13200   -64.7289u    1.0000  
    1.13300   -64.9059u    1.0000  
    1.13400   -65.0831u    1.0000  
    1.13500   -65.2605u    1.0000  
    1.13600   -65.4382u    1.0000  
    1.13700   -65.6162u    1.0000  
    1.13800   -65.7944u    1.0000  
    1.13900   -65.9728u    1.0000  
    1.14000   -66.1514u    1.0000  
    1.14100   -66.3304u    1.0000  
    1.14200   -66.5095u    1.0000  
    1.14300   -66.6889u    1.0000  
    1.14400   -66.8685u    1.0000  
    1.14500   -67.0484u    1.0000  
    1.14600   -67.2285u    1.0000  
    1.14700   -67.4089u    1.0000  
    1.14800   -67.5895u    1.0000  
    1.14900   -67.7703u    1.0000  
    1.15000   -67.9514u    1.0000  
    1.15100   -68.1327u    1.0000  
    1.15200   -68.3143u    1.0000  
    1.15300   -68.4961u    1.0000  
    1.15400   -68.6782u    1.0000  
    1.15500   -68.8604u    1.0000  
    1.15600   -69.0430u    1.0000  
    1.15700   -69.2258u    1.0000  
    1.15800   -69.4088u    1.0000  
    1.15900   -69.5920u    1.0000  
    1.16000   -69.7755u    1.0000  
    1.16100   -69.9593u    1.0000  
    1.16200   -70.1432u    1.0000  
    1.16300   -70.3275u    1.0000  
    1.16400   -70.5119u    1.0000  
    1.16500   -70.6966u    1.0000  
    1.16600   -70.8816u    1.0000  
    1.16700   -71.0668u    1.0000  
    1.16800   -71.2522u    1.0000  
    1.16900   -71.4379u    1.0000  
    1.17000   -71.6238u    1.0000  
    1.17100   -71.8100u    1.0000  
    1.17200   -71.9964u    1.0000  
    1.17300   -72.1830u    1.0000  
    1.17400   -72.3699u    1.0000  
    1.17500   -72.5570u    1.0000  
    1.17600   -72.7444u    1.0000  
    1.17700   -72.9320u    1.0000  
    1.17800   -73.1198u    1.0000  
    1.17900   -73.3079u    1.0000  
    1.18000   -73.4962u    1.0000  
    1.18100   -73.6848u    1.0000  
    1.18200   -73.8736u    1.0000  
    1.18300   -74.0627u    1.0000  
    1.18400   -74.2520u    1.0000  
    1.18500   -74.4415u    1.0000  
    1.18600   -74.6313u    1.0000  
    1.18700   -74.8213u    1.0000  
    1.18800   -75.0116u    1.0000  
    1.18900   -75.2021u    1.0000  
    1.19000   -75.3928u    1.0000  
    1.19100   -75.5838u    1.0000  
    1.19200   -75.7751u    1.0000  
    1.19300   -75.9665u    1.0000  
    1.19400   -76.1582u    1.0000  
    1.19500   -76.3502u    1.0000  
    1.19600   -76.5424u    1.0000  
    1.19700   -76.7348u    1.0000  
    1.19800   -76.9275u    1.0000  
    1.19900   -77.1204u    1.0000  
    1.20000   -77.3136u    1.0000  
    1.20100   -77.5070u    1.0000  
    1.20200   -77.7007u    1.0000  
    1.20300   -77.8945u    1.0000  
    1.20400   -78.0887u    1.0000  
    1.20500   -78.2830u    1.0000  
    1.20600   -78.4777u    1.0000  
    1.20700   -78.6725u    1.0000  
    1.20800   -78.8676u    1.0000  
    1.20900   -79.0629u    1.0000  
    1.21000   -79.2585u    1.0000  
    1.21100   -79.4543u    1.0000  
    1.21200   -79.6504u    1.0000  
    1.21300   -79.8467u    1.0000  
    1.21400   -80.0433u    1.0000  
    1.21500   -80.2400u    1.0000  
    1.21600   -80.4371u    1.0000  
    1.21700   -80.6343u    1.0000  
    1.21800   -80.8319u    1.0000  
    1.21900   -81.0296u    1.0000  
    1.22000   -81.2276u    1.0000  
    1.22100   -81.4258u    1.0000  
    1.22200   -81.6243u    1.0000  
    1.22300   -81.8230u    1.0000  
    1.22400   -82.0220u    1.0000  
    1.22500   -82.2212u    1.0000  
    1.22600   -82.4206u    1.0000  
    1.22700   -82.6203u    1.0000  
    1.22800   -82.8203u    1.0000  
    1.22900   -83.0204u    1.0000  
    1.23000   -83.2208u    1.0000  
    1.23100   -83.4215u    1.0000  
    1.23200   -83.6224u    1.0000  
    1.23300   -83.8235u    1.0000  
    1.23400   -84.0249u    1.0000  
    1.23500   -84.2265u    1.0000  
    1.23600   -84.4284u    1.0000  
    1.23700   -84.6305u    1.0000  
    1.23800   -84.8328u    1.0000  
    1.23900   -85.0354u    1.0000  
    1.24000   -85.2382u    1.0000  
    1.24100   -85.4413u    1.0000  
    1.24200   -85.6446u    1.0000  
    1.24300   -85.8482u    1.0000  
    1.24400   -86.0520u    1.0000  
    1.24500   -86.2560u    1.0000  
    1.24600   -86.4603u    1.0000  
    1.24700   -86.6648u    1.0000  
    1.24800   -86.8696u    1.0000  
    1.24900   -87.0746u    1.0000  
    1.25000   -87.2798u    1.0000  
    1.25100   -87.4853u    1.0000  
    1.25200   -87.6910u    1.0000  
    1.25300   -87.8970u    1.0000  
    1.25400   -88.1032u    1.0000  
    1.25500   -88.3096u    1.0000  
    1.25600   -88.5163u    1.0000  
    1.25700   -88.7233u    1.0000  
    1.25800   -88.9305u    1.0000  
    1.25900   -89.1379u    1.0000  
    1.26000   -89.3455u    1.0000  
    1.26100   -89.5534u    1.0000  
    1.26200   -89.7616u    1.0000  
    1.26300   -89.9700u    1.0000  
    1.26400   -90.1786u    1.0000  
    1.26500   -90.3875u    1.0000  
    1.26600   -90.5966u    1.0000  
    1.26700   -90.8059u    1.0000  
    1.26800   -91.0155u    1.0000  
    1.26900   -91.2253u    1.0000  
    1.27000   -91.4354u    1.0000  
    1.27100   -91.6457u    1.0000  
    1.27200   -91.8563u    1.0000  
    1.27300   -92.0671u    1.0000  
    1.27400   -92.2781u    1.0000  
    1.27500   -92.4894u    1.0000  
    1.27600   -92.7009u    1.0000  
    1.27700   -92.9127u    1.0000  
    1.27800   -93.1247u    1.0000  
    1.27900   -93.3370u    1.0000  
    1.28000   -93.5495u    1.0000  
    1.28100   -93.7622u    1.0000  
    1.28200   -93.9752u    1.0000  
    1.28300   -94.1884u    1.0000  
    1.28400   -94.4018u    1.0000  
    1.28500   -94.6155u    1.0000  
    1.28600   -94.8295u    1.0000  
    1.28700   -95.0437u    1.0000  
    1.28800   -95.2581u    1.0000  
    1.28900   -95.4728u    1.0000  
    1.29000   -95.6877u    1.0000  
    1.29100   -95.9028u    1.0000  
    1.29200   -96.1182u    1.0000  
    1.29300   -96.3338u    1.0000  
    1.29400   -96.5497u    1.0000  
    1.29500   -96.7658u    1.0000  
    1.29600   -96.9822u    1.0000  
    1.29700   -97.1988u    1.0000  
    1.29800   -97.4156u    1.0000  
    1.29900   -97.6327u    1.0000  
    1.30000   -97.8500u    1.0000  
    1.30100   -98.0676u    1.0000  
    1.30200   -98.2854u    1.0000  
    1.30300   -98.5034u    1.0000  
    1.30400   -98.7217u    1.0000  
    1.30500   -98.9403u    1.0000  
    1.30600   -99.1590u    1.0000  
    1.30700   -99.3781u    1.0000  
    1.30800   -99.5973u    1.0000  
    1.30900   -99.8168u    1.0000  
    1.31000  -100.0366u    1.0000  
    1.31100  -100.2565u    1.0000  
    1.31200  -100.4768u    1.0000  
    1.31300  -100.6972u    1.0000  
    1.31400  -100.9179u    1.0000  
    1.31500  -101.1389u    1.0000  
    1.31600  -101.3601u    1.0000  
    1.31700  -101.5815u    1.0000  
    1.31800  -101.8032u    1.0000  
    1.31900  -102.0251u    1.0000  
    1.32000  -102.2472u    1.0000  
    1.32100  -102.4696u    1.0000  
    1.32200  -102.6923u    1.0000  
    1.32300  -102.9152u    1.0000  
    1.32400  -103.1383u    1.0000  
    1.32500  -103.3616u    1.0000  
    1.32600  -103.5852u    1.0000  
    1.32700  -103.8091u    1.0000  
    1.32800  -104.0332u    1.0000  
    1.32900  -104.2575u    1.0000  
    1.33000  -104.4821u    1.0000  
    1.33100  -104.7069u    1.0000  
    1.33200  -104.9320u    1.0000  
    1.33300  -105.1572u    1.0000  
    1.33400  -105.3828u    1.0000  
    1.33500  -105.6086u    1.0000  
    1.33600  -105.8346u    1.0000  
    1.33700  -106.0609u    1.0000  
    1.33800  -106.2874u    1.0000  
    1.33900  -106.5141u    1.0000  
    1.34000  -106.7411u    1.0000  
    1.34100  -106.9683u    1.0000  
    1.34200  -107.1958u    1.0000  
    1.34300  -107.4235u    1.0000  
    1.34400  -107.6515u    1.0000  
    1.34500  -107.8797u    1.0000  
    1.34600  -108.1081u    1.0000  
    1.34700  -108.3368u    1.0000  
    1.34800  -108.5657u    1.0000  
    1.34900  -108.7949u    1.0000  
    1.35000  -109.0243u    1.0000  
    1.35100  -109.2539u    1.0000  
    1.35200  -109.4838u    1.0000  
    1.35300  -109.7139u    1.0000  
    1.35400  -109.9443u    1.0000  
    1.35500  -110.1749u    1.0000  
    1.35600  -110.4058u    1.0000  
    1.35700  -110.6368u    1.0000  
    1.35800  -110.8682u    1.0000  
    1.35900  -111.0998u    1.0000  
    1.36000  -111.3316u    1.0000  
    1.36100  -111.5636u    1.0000  
    1.36200  -111.7959u    1.0000  
    1.36300  -112.0285u    1.0000  
    1.36400  -112.2613u    1.0000  
    1.36500  -112.4943u    1.0000  
    1.36600  -112.7276u    1.0000  
    1.36700  -112.9611u    1.0000  
    1.36800  -113.1948u    1.0000  
    1.36900  -113.4288u    1.0000  
    1.37000  -113.6631u    1.0000  
    1.37100  -113.8975u    1.0000  
    1.37200  -114.1323u    1.0000  
    1.37300  -114.3672u    1.0000  
    1.37400  -114.6024u    1.0000  
    1.37500  -114.8379u    1.0000  
    1.37600  -115.0736u    1.0000  
    1.37700  -115.3095u    1.0000  
    1.37800  -115.5457u    1.0000  
    1.37900  -115.7821u    1.0000  
    1.38000  -116.0187u    1.0000  
    1.38100  -116.2556u    1.0000  
    1.38200  -116.4928u    1.0000  
    1.38300  -116.7301u    1.0000  
    1.38400  -116.9677u    1.0000  
    1.38500  -117.2056u    1.0000  
    1.38600  -117.4437u    1.0000  
    1.38700  -117.6821u    1.0000  
    1.38800  -117.9206u    1.0000  
    1.38900  -118.1595u    1.0000  
    1.39000  -118.3985u    1.0000  
    1.39100  -118.6378u    1.0000  
    1.39200  -118.8774u    1.0000  
    1.39300  -119.1172u    1.0000  
    1.39400  -119.3572u    1.0000  
    1.39500  -119.5975u    1.0000  
    1.39600  -119.8380u    1.0000  
    1.39700  -120.0788u    1.0000  
    1.39800  -120.3198u    1.0000  
    1.39900  -120.5610u    1.0000  
    1.40000  -120.8025u    1.0000  
    1.40100  -121.0441u    1.0000  
    1.40200  -121.2857u    1.0000  
    1.40300  -121.5273u    1.0000  
    1.40400  -121.7689u    1.0000  
    1.40500  -122.0105u    1.0000  
    1.40600  -122.2521u    1.0000  
    1.40700  -122.4937u    1.0000  
    1.40800  -122.7353u    1.0000  
    1.40900  -122.9769u    1.0000  
    1.41000  -123.2185u    1.0000  
    1.41100  -123.4602u    1.0000  
    1.41200  -123.7018u    1.0000  
    1.41300  -123.9434u    1.0000  
    1.41400  -124.1850u    1.0000  
    1.41500  -124.4266u    1.0000  
    1.41600  -124.6682u    1.0000  
    1.41700  -124.9098u    1.0000  
    1.41800  -125.1514u    1.0000  
    1.41900  -125.3930u    1.0000  
    1.42000  -125.6346u    1.0000  
    1.42100  -125.8762u    1.0000  
    1.42200  -126.1178u    1.0000  
    1.42300  -126.3594u    1.0000  
    1.42400  -126.6010u    1.0000  
    1.42500  -126.8426u    1.0000  
    1.42600  -127.0842u    1.0000  
    1.42700  -127.3258u    1.0000  
    1.42800  -127.5674u    1.0000  
    1.42900  -127.8090u    1.0000  
    1.43000  -128.0506u    1.0000  
    1.43100  -128.2923u    1.0000  
    1.43200  -128.5339u    1.0000  
    1.43300  -128.7755u    1.0000  
    1.43400  -129.0171u    1.0000  
    1.43500  -129.2587u    1.0000  
    1.43600  -129.5003u    1.0000  
    1.43700  -129.7419u    1.0000  
    1.43800  -129.9835u    1.0000  
    1.43900  -130.2251u    1.0000  
    1.44000  -130.4667u    1.0000  
    1.44100  -130.7083u    1.0000  
    1.44200  -130.9499u    1.0000  
    1.44300  -131.1915u    1.0000  
    1.44400  -131.4331u    1.0000  
    1.44500  -131.6747u    1.0000  
    1.44600  -131.9163u    1.0000  
    1.44700  -132.1579u    1.0000  
    1.44800  -132.3995u    1.0000  
    1.44900  -132.6411u    1.0000  
    1.45000  -132.8827u    1.0000  
    1.45100  -133.1244u    1.0000  
    1.45200  -133.3660u    1.0000  
    1.45300  -133.6076u    1.0000  
    1.45400  -133.8492u    1.0000  
    1.45500  -134.0908u    1.0000  
    1.45600  -134.3324u    1.0000  
    1.45700  -134.5740u    1.0000  
    1.45800  -134.8156u    1.0000  
    1.45900  -135.0572u    1.0000  
    1.46000  -135.2988u    1.0000  
    1.46100  -135.5404u    1.0000  
    1.46200  -135.7820u    1.0000  
    1.46300  -136.0236u    1.0000  
    1.46400  -136.2652u    1.0000  
    1.46500  -136.5068u    1.0000  
    1.46600  -136.7484u    1.0000  
    1.46700  -136.9900u    1.0000  
    1.46800  -137.2316u    1.0000  
    1.46900  -137.4732u    1.0000  
    1.47000  -137.7148u    1.0000  
    1.47100  -137.9565u    1.0000  
    1.47200  -138.1981u    1.0000  
    1.47300  -138.4397u    1.0000  
    1.47400  -138.6813u    1.0000  
    1.47500  -138.9229u    1.0000  
    1.47600  -139.1645u    1.0000  
    1.47700  -139.4061u    1.0000  
    1.47800  -139.6477u    1.0000  
    1.47900  -139.8893u    1.0000  
    1.48000  -140.1309u    1.0000  
    1.48100  -140.3725u    1.0000  
    1.48200  -140.6141u    1.0000  
    1.48300  -140.8557u    1.0000  
    1.48400  -141.0973u    1.0000  
    1.48500  -141.3389u    1.0000  
    1.48600  -141.5805u    1.0000  
    1.48700  -141.8221u    1.0000  
    1.48800  -142.0637u    1.0000  
    1.48900  -142.3053u    1.0000  
    1.49000  -142.5469u    1.0000  
    1.49100  -142.7886u    1.0000  
    1.49200  -143.0302u    1.0000  
    1.49300  -143.2718u    1.0000  
    1.49400  -143.5134u    1.0000  
    1.49500  -143.7550u    1.0000  
    1.49600  -143.9966u    1.0000  
    1.49700  -144.2382u    1.0000  
    1.49800  -144.4798u    1.0000  
    1.49900  -144.7214u    1.0000  
    1.50000  -144.9630u    1.0000  
    1.50100  -145.2046u    1.0000  
    1.50200  -145.4462u    1.0000  
    1.50300  -145.6878u    1.0000  
    1.50400  -145.9294u    1.0000  
    1.50500  -146.1710u    1.0000  
    1.50600  -146.4126u    1.0000  
    1.50700  -146.6542u    1.0000  
    1.50800  -146.8958u    1.0000  
    1.50900  -147.1374u    1.0000  
    1.51000  -147.3791u    1.0000  
    1.51100  -147.6207u    1.0000  
    1.51200  -147.8623u    1.0000  
    1.51300  -148.1039u    1.0000  
    1.51400  -148.3455u    1.0000  
    1.51500  -148.5871u    1.0000  
    1.51600  -148.8287u    1.0000  
    1.51700  -149.0703u    1.0000  
    1.51800  -149.3119u    1.0000  
    1.51900  -149.5535u    1.0000  
    1.52000  -149.7951u    1.0000  
    1.52100  -150.0367u    1.0000  
    1.52200  -150.2783u    1.0000  
    1.52300  -150.5199u    1.0000  
    1.52400  -150.7615u    1.0000  
    1.52500  -151.0031u    1.0000  
    1.52600  -151.2447u    1.0000  
    1.52700  -151.4863u    1.0000  
    1.52800  -151.7279u    1.0000  
    1.52900  -151.9695u    1.0000  
    1.53000  -152.2112u    1.0000  
    1.53100  -152.4528u    1.0000  
    1.53200  -152.6944u    1.0000  
    1.53300  -152.9360u    1.0000  
    1.53400  -153.1776u    1.0000  
    1.53500  -153.4192u    1.0000  
    1.53600  -153.6608u    1.0000  
    1.53700  -153.9024u    1.0000  
    1.53800  -154.1440u    1.0000  
    1.53900  -154.3856u    1.0000  
    1.54000  -154.6272u    1.0000  
    1.54100  -154.8688u    1.0000  
    1.54200  -155.1104u    1.0000  
    1.54300  -155.3520u    1.0000  
    1.54400  -155.5936u    1.0000  
    1.54500  -155.8352u    1.0000  
    1.54600  -156.0768u    1.0000  
    1.54700  -156.3184u    1.0000  
    1.54800  -156.5600u    1.0000  
    1.54900  -156.8016u    1.0000  
    1.55000  -157.0433u    1.0000  
    1.55100  -157.2849u    1.0000  
    1.55200  -157.5265u    1.0000  
    1.55300  -157.7681u    1.0000  
    1.55400  -158.0097u    1.0000  
    1.55500  -158.2513u    1.0000  
    1.55600  -158.4929u    1.0000  
    1.55700  -158.7345u    1.0000  
    1.55800  -158.9761u    1.0000  
    1.55900  -159.2177u    1.0000  
    1.56000  -159.4593u    1.0000  
    1.56100  -159.7009u    1.0000  
    1.56200  -159.9425u    1.0000  
    1.56300  -160.1841u    1.0000  
    1.56400  -160.4257u    1.0000  
    1.56500  -160.6673u    1.0000  
    1.56600  -160.9089u    1.0000  
    1.56700  -161.1505u    1.0000  
    1.56800  -161.3921u    1.0000  
    1.56900  -161.6337u    1.0000  
    1.57000  -161.8753u    1.0000  
    1.57100  -162.1170u    1.0000  
    1.57200  -162.3586u    1.0000  
    1.57300  -162.6002u    1.0000  
    1.57400  -162.8418u    1.0000  
    1.57500  -163.0834u    1.0000  
    1.57600  -163.3250u    1.0000  
    1.57700  -163.5666u    1.0000  
    1.57800  -163.8082u    1.0000  
    1.57900  -164.0498u    1.0000  
    1.58000  -164.2914u    1.0000  
    1.58100  -164.5330u    1.0000  
    1.58200  -164.7746u    1.0000  
    1.58300  -165.0162u    1.0000  
    1.58400  -165.2578u    1.0000  
    1.58500  -165.4994u    1.0000  
    1.58600  -165.7410u    1.0000  
    1.58700  -165.9826u    1.0000  
    1.58800  -166.2242u    1.0000  
    1.58900  -166.4658u    1.0000  
    1.59000  -166.7075u    1.0000  
    1.59100  -166.9491u    1.0000  
    1.59200  -167.1907u    1.0000  
    1.59300  -167.4323u    1.0000  
    1.59400  -167.6739u    1.0000  
    1.59500  -167.9155u    1.0000  
    1.59600  -168.1571u    1.0000  
    1.59700  -168.3987u    1.0000  
    1.59800  -168.6403u    1.0000  
    1.59900  -168.8819u    1.0000  
    1.60000  -169.1235u    1.0000  
    1.60100  -169.3651u    1.0000  
    1.60200  -169.6067u    1.0000  
    1.60300  -169.8483u    1.0000  
    1.60400  -170.0899u    1.0000  
    1.60500  -170.3315u    1.0000  
    1.60600  -170.5731u    1.0000  
    1.60700  -170.8147u    1.0000  
    1.60800  -171.0563u    1.0000  
    1.60900  -171.2979u    1.0000  
    1.61000  -171.5396u    1.0000  
    1.61100  -171.7812u    1.0000  
    1.61200  -172.0228u    1.0000  
    1.61300  -172.2644u    1.0000  
    1.61400  -172.5060u    1.0000  
    1.61500  -172.7476u    1.0000  
    1.61600  -172.9892u    1.0000  
    1.61700  -173.2308u    1.0000  
    1.61800  -173.4724u    1.0000  
    1.61900  -173.7140u    1.0000  
    1.62000  -173.9556u    1.0000  
    1.62100  -174.1972u    1.0000  
    1.62200  -174.4388u    1.0000  
    1.62300  -174.6804u    1.0000  
    1.62400  -174.9220u    1.0000  
    1.62500  -175.1636u    1.0000  
    1.62600  -175.4052u    1.0000  
    1.62700  -175.6468u    1.0000  
    1.62800  -175.8884u    1.0000  
    1.62900  -176.1300u    1.0000  
    1.63000  -176.3717u    1.0000  
    1.63100  -176.6133u    1.0000  
    1.63200  -176.8549u    1.0000  
    1.63300  -177.0965u    1.0000  
    1.63400  -177.3381u    1.0000  
    1.63500  -177.5797u    1.0000  
    1.63600  -177.8213u    1.0000  
    1.63700  -178.0629u    1.0000  
    1.63800  -178.3045u    1.0000  
    1.63900  -178.5461u    1.0000  
    1.64000  -178.7877u    1.0000  
    1.64100  -179.0293u    1.0000  
    1.64200  -179.2709u    1.0000  
    1.64300  -179.5125u    1.0000  
    1.64400  -179.7541u    1.0000  
    1.64500  -179.9957u    1.0000  
    1.64600  -180.2373u    1.0000  
    1.64700  -180.4789u    1.0000  
    1.64800  -180.7205u    1.0000  
    1.64900  -180.9621u    1.0000  
    1.65000  -181.2038u    1.0000  
    1.65100  -181.4454u    1.0000  
    1.65200  -181.6870u    1.0000  
    1.65300  -181.9286u    1.0000  
    1.65400  -182.1702u    1.0000  
    1.65500  -182.4118u    1.0000  
    1.65600  -182.6534u    1.0000  
    1.65700  -182.8950u    1.0000  
    1.65800  -183.1366u    1.0000  
    1.65900  -183.3782u    1.0000  
    1.66000  -183.6198u    1.0000  
    1.66100  -183.8614u    1.0000  
    1.66200  -184.1030u    1.0000  
    1.66300  -184.3446u    1.0000  
    1.66400  -184.5862u    1.0000  
    1.66500  -184.8278u    1.0000  
    1.66600  -185.0694u    1.0000  
    1.66700  -185.3110u    1.0000  
    1.66800  -185.5526u    1.0000  
    1.66900  -185.7942u    1.0000  
    1.67000  -186.0359u    1.0000  
    1.67100  -186.2775u    1.0000  
    1.67200  -186.5191u    1.0000  
    1.67300  -186.7607u    1.0000  
    1.67400  -187.0023u    1.0000  
    1.67500  -187.2439u    1.0000  
    1.67600  -187.4855u    1.0000  
    1.67700  -187.7271u    1.0000  
    1.67800  -187.9687u    1.0000  
    1.67900  -188.2103u    1.0000  
    1.68000  -188.4519u    1.0000  
    1.68100  -188.6935u    1.0000  
    1.68200  -188.9351u    1.0000  
    1.68300  -189.1767u    1.0000  
    1.68400  -189.4183u    1.0000  
    1.68500  -189.6599u    1.0000  
    1.68600  -189.9015u    1.0000  
    1.68700  -190.1431u    1.0000  
    1.68800  -190.3847u    1.0000  
    1.68900  -190.6263u    1.0000  
    1.69000  -190.8680u    1.0000  
    1.69100  -191.1096u    1.0000  
    1.69200  -191.3512u    1.0000  
    1.69300  -191.5928u    1.0000  
    1.69400  -191.8344u    1.0000  
    1.69500  -192.0760u    1.0000  
    1.69600  -192.3176u    1.0000  
    1.69700  -192.5592u    1.0000  
    1.69800  -192.8008u    1.0000  
    1.69900  -193.0424u    1.0000  
    1.70000  -193.2840u    1.0000  
    1.70100  -193.5256u    1.0000  
    1.70200  -193.7672u    1.0000  
    1.70300  -194.0088u    1.0000  
    1.70400  -194.2504u    1.0000  
    1.70500  -194.4920u    1.0000  
    1.70600  -194.7336u    1.0000  
    1.70700  -194.9752u    1.0000  
    1.70800  -195.2168u    1.0000  
    1.70900  -195.4584u    1.0000  
    1.71000  -195.7001u    1.0000  
    1.71100  -195.9417u    1.0000  
    1.71200  -196.1833u    1.0000  
    1.71300  -196.4249u    1.0000  
    1.71400  -196.6665u    1.0000  
    1.71500  -196.9081u    1.0000  
    1.71600  -197.1497u    1.0000  
    1.71700  -197.3913u    1.0000  
    1.71800  -197.6329u    1.0000  
    1.71900  -197.8745u    1.0000  
    1.72000  -198.1161u    1.0000  
    1.72100  -198.3577u    1.0000  
    1.72200  -198.5993u    1.0000  
    1.72300  -198.8409u    1.0000  
    1.72400  -199.0825u    1.0000  
    1.72500  -199.3241u    1.0000  
    1.72600  -199.5657u    1.0000  
    1.72700  -199.8073u    1.0000  
    1.72800  -200.0489u    1.0000  
    1.72900  -200.2905u    1.0000  
    1.73000  -200.5322u    1.0000  
    1.73100  -200.7738u    1.0000  
    1.73200  -201.0154u    1.0000  
    1.73300  -201.2570u    1.0000  
    1.73400  -201.4986u    1.0000  
    1.73500  -201.7402u    1.0000  
    1.73600  -201.9818u    1.0000  
    1.73700  -202.2234u    1.0000  
    1.73800  -202.4650u    1.0000  
    1.73900  -202.7066u    1.0000  
    1.74000  -202.9482u    1.0000  
    1.74100  -203.1898u    1.0000  
    1.74200  -203.4314u    1.0000  
    1.74300  -203.6730u    1.0000  
    1.74400  -203.9146u    1.0000  
    1.74500  -204.1562u    1.0000  
    1.74600  -204.3978u    1.0000  
    1.74700  -204.6394u    1.0000  
    1.74800  -204.8810u    1.0000  
    1.74900  -205.1226u    1.0000  
    1.75000  -205.3643u    1.0000  
    1.75100  -205.6059u    1.0000  
    1.75200  -205.8475u    1.0000  
    1.75300  -206.0891u    1.0000  
    1.75400  -206.3307u    1.0000  
    1.75500  -206.5723u    1.0000  
    1.75600  -206.8139u    1.0000  
    1.75700  -207.0555u    1.0000  
    1.75800  -207.2971u    1.0000  
    1.75900  -207.5387u    1.0000  
    1.76000  -207.7803u    1.0000  
    1.76100  -208.0219u    1.0000  
    1.76200  -208.2635u    1.0000  
    1.76300  -208.5051u    1.0000  
    1.76400  -208.7467u    1.0000  
    1.76500  -208.9883u    1.0000  
    1.76600  -209.2299u    1.0000  
    1.76700  -209.4715u    1.0000  
    1.76800  -209.7131u    1.0000  
    1.76900  -209.9547u    1.0000  
    1.77000  -210.1964u    1.0000  
    1.77100  -210.4380u    1.0000  
    1.77200  -210.6796u    1.0000  
    1.77300  -210.9212u    1.0000  
    1.77400  -211.1628u    1.0000  
    1.77500  -211.4044u    1.0000  
    1.77600  -211.6460u    1.0000  
    1.77700  -211.8876u    1.0000  
    1.77800  -212.1292u    1.0000  
    1.77900  -212.3708u    1.0000  
    1.78000  -212.6124u    1.0000  
    1.78100  -212.8540u    1.0000  
    1.78200  -213.0956u    1.0000  
    1.78300  -213.3372u    1.0000  
    1.78400  -213.5788u    1.0000  
    1.78500  -213.8204u    1.0000  
    1.78600  -214.0620u    1.0000  
    1.78700  -214.3036u    1.0000  
    1.78800  -214.5452u    1.0000  
    1.78900  -214.7868u    1.0000  
    1.79000  -215.0285u    1.0000  
    1.79100  -215.2701u    1.0000  
    1.79200  -215.5117u    1.0000  
    1.79300  -215.7533u    1.0000  
    1.79400  -215.9949u    1.0000  
    1.79500  -216.2365u    1.0000  
    1.79600  -216.4781u    1.0000  
    1.79700  -216.7197u    1.0000  
    1.79800  -216.9613u    1.0000  
    1.79900  -217.2029u    1.0000  
    1.80000  -217.4445u    1.0000  
    1.80100  -217.6861u    1.0000  
    1.80200  -217.9277u    1.0000  
    1.80300  -218.1693u    1.0000  
    1.80400  -218.4109u    1.0000  
    1.80500  -218.6525u    1.0000  
    1.80600  -218.8941u    1.0000  
    1.80700  -219.1357u    1.0000  
    1.80800  -219.3773u    1.0000  
    1.80900  -219.6189u    1.0000  
    1.81000  -219.8606u    1.0000  
    1.81100  -220.1022u    1.0000  
    1.81200  -220.3438u    1.0000  
    1.81300  -220.5854u    1.0000  
    1.81400  -220.8270u    1.0000  
    1.81500  -221.0686u    1.0000  
    1.81600  -221.3102u    1.0000  
    1.81700  -221.5518u    1.0000  
    1.81800  -221.7934u    1.0000  
    1.81900  -222.0350u    1.0000  
    1.82000  -222.2766u    1.0000  
    1.82100  -222.5182u    1.0000  
    1.82200  -222.7598u    1.0000  
    1.82300  -223.0014u    1.0000  
    1.82400  -223.2430u    1.0000  
    1.82500  -223.4846u    1.0000  
    1.82600  -223.7262u    1.0000  
    1.82700  -223.9678u    1.0000  
    1.82800  -224.2094u    1.0000  
    1.82900  -224.4510u    1.0000  
    1.83000  -224.6927u    1.0000  
    1.83100  -224.9343u    1.0000  
    1.83200  -225.1759u    1.0000  
    1.83300  -225.4175u    1.0000  
    1.83400  -225.6591u    1.0000  
    1.83500  -225.9007u    1.0000  
    1.83600  -226.1423u    1.0000  
    1.83700  -226.3839u    1.0000  
    1.83800  -226.6255u    1.0000  
    1.83900  -226.8671u    1.0000  
    1.84000  -227.1087u    1.0000  
    1.84100  -227.3503u    1.0000  
    1.84200  -227.5919u    1.0000  
    1.84300  -227.8335u    1.0000  
    1.84400  -228.0751u    1.0000  
    1.84500  -228.3167u    1.0000  
    1.84600  -228.5583u    1.0000  
    1.84700  -228.7999u    1.0000  
    1.84800  -229.0415u    1.0000  
    1.84900  -229.2831u    1.0000  
    1.85000  -229.5248u    1.0000  
    1.85100  -229.7664u    1.0000  
    1.85200  -230.0080u    1.0000  
    1.85300  -230.2496u    1.0000  
    1.85400  -230.4912u    1.0000  
    1.85500  -230.7328u    1.0000  
    1.85600  -230.9744u    1.0000  
    1.85700  -231.2160u    1.0000  
    1.85800  -231.4576u    1.0000  
    1.85900  -231.6992u    1.0000  
    1.86000  -231.9408u    1.0000  
    1.86100  -232.1824u    1.0000  
    1.86200  -232.4240u    1.0000  
    1.86300  -232.6656u    1.0000  
    1.86400  -232.9072u    1.0000  
    1.86500  -233.1488u    1.0000  
    1.86600  -233.3904u    1.0000  
    1.86700  -233.6320u    1.0000  
    1.86800  -233.8736u    1.0000  
    1.86900  -234.1152u    1.0000  
    1.87000  -234.3569u    1.0000  
    1.87100  -234.5985u    1.0000  
    1.87200  -234.8401u    1.0000  
    1.87300  -235.0817u    1.0000  
    1.87400  -235.3233u    1.0000  
    1.87500  -235.5649u    1.0000  
    1.87600  -235.8065u    1.0000  
    1.87700  -236.0481u    1.0000  
    1.87800  -236.2897u    1.0000  
    1.87900  -236.5313u    1.0000  
    1.88000  -236.7729u    1.0000  
    1.88100  -237.0145u    1.0000  
    1.88200  -237.2561u    1.0000  
    1.88300  -237.4977u    1.0000  
    1.88400  -237.7393u    1.0000  
    1.88500  -237.9809u    1.0000  
    1.88600  -238.2225u    1.0000  
    1.88700  -238.4641u    1.0000  
    1.88800  -238.7057u    1.0000  
    1.88900  -238.9473u    1.0000  
    1.89000  -239.1890u    1.0000  
    1.89100  -239.4306u    1.0000  
    1.89200  -239.6722u    1.0000  
    1.89300  -239.9138u    1.0000  
    1.89400  -240.1554u    1.0000  
    1.89500  -240.3970u    1.0000  
    1.89600  -240.6386u    1.0000  
    1.89700  -240.8802u    1.0000  
    1.89800  -241.1218u    1.0000  
    1.89900  -241.3634u    1.0000  
    1.90000  -241.6050u    1.0000  
    1.90100  -241.8466u    1.0000  
    1.90200  -242.0882u    1.0000  
    1.90300  -242.3298u    1.0000  
    1.90400  -242.5714u    1.0000  
    1.90500  -242.8130u    1.0000  
    1.90600  -243.0546u    1.0000  
    1.90700  -243.2962u    1.0000  
    1.90800  -243.5378u    1.0000  
    1.90900  -243.7794u    1.0000  
    1.91000  -244.0211u    1.0000  
    1.91100  -244.2627u    1.0000  
    1.91200  -244.5043u    1.0000  
    1.91300  -244.7459u    1.0000  
    1.91400  -244.9875u    1.0000  
    1.91500  -245.2291u    1.0000  
    1.91600  -245.4707u    1.0000  
    1.91700  -245.7123u    1.0000  
    1.91800  -245.9539u    1.0000  
    1.91900  -246.1955u    1.0000  
    1.92000  -246.4371u    1.0000  
    1.92100  -246.6787u    1.0000  
    1.92200  -246.9203u    1.0000  
    1.92300  -247.1619u    1.0000  
    1.92400  -247.4035u    1.0000  
    1.92500  -247.6451u    1.0000  
    1.92600  -247.8867u    1.0000  
    1.92700  -248.1283u    1.0000  
    1.92800  -248.3699u    1.0000  
    1.92900  -248.6115u    1.0000  
    1.93000  -248.8531u    1.0000  
    1.93100  -249.0948u    1.0000  
    1.93200  -249.3364u    1.0000  
    1.93300  -249.5780u    1.0000  
    1.93400  -249.8196u    1.0000  
    1.93500  -250.0612u    1.0000  
    1.93600  -250.3028u    1.0000  
    1.93700  -250.5444u    1.0000  
    1.93800  -250.7860u    1.0000  
    1.93900  -251.0276u    1.0000  
    1.94000  -251.2692u    1.0000  
    1.94100  -251.5108u    1.0000  
    1.94200  -251.7524u    1.0000  
    1.94300  -251.9940u    1.0000  
    1.94400  -252.2356u    1.0000  
    1.94500  -252.4772u    1.0000  
    1.94600  -252.7188u    1.0000  
    1.94700  -252.9604u    1.0000  
    1.94800  -253.2020u    1.0000  
    1.94900  -253.4436u    1.0000  
    1.95000  -253.6852u    1.0000  
    1.95100  -253.9269u    1.0000  
    1.95200  -254.1685u    1.0000  
    1.95300  -254.4101u    1.0000  
    1.95400  -254.6517u    1.0000  
    1.95500  -254.8933u    1.0000  
    1.95600  -255.1349u    1.0000  
    1.95700  -255.3765u    1.0000  
    1.95800  -255.6181u    1.0000  
    1.95900  -255.8597u    1.0000  
    1.96000  -256.1013u    1.0000  
    1.96100  -256.3429u    1.0000  
    1.96200  -256.5845u    1.0000  
    1.96300  -256.8261u    1.0000  
    1.96400  -257.0677u    1.0000  
    1.96500  -257.3093u    1.0000  
    1.96600  -257.5509u    1.0000  
    1.96700  -257.7925u    1.0000  
    1.96800  -258.0341u    1.0000  
    1.96900  -258.2757u    1.0000  
    1.97000  -258.5174u    1.0000  
    1.97100  -258.7590u    1.0000  
    1.97200  -259.0006u    1.0000  
    1.97300  -259.2422u    1.0000  
    1.97400  -259.4838u    1.0000  
    1.97500  -259.7254u    1.0000  
    1.97600  -259.9670u    1.0000  
    1.97700  -260.2086u    1.0000  
    1.97800  -260.4502u    1.0000  
    1.97900  -260.6918u    1.0000  
    1.98000  -260.9334u    1.0000  
    1.98100  -261.1750u    1.0000  
    1.98200  -261.4166u    1.0000  
    1.98300  -261.6582u    1.0000  
    1.98400  -261.8998u    1.0000  
    1.98500  -262.1414u    1.0000  
    1.98600  -262.3830u    1.0000  
    1.98700  -262.6246u    1.0000  
    1.98800  -262.8662u    1.0000  
    1.98900  -263.1078u    1.0000  
    1.99000  -263.3494u    1.0000  
    1.99100  -263.5911u    1.0000  
    1.99200  -263.8327u    1.0000  
    1.99300  -264.0743u    1.0000  
    1.99400  -264.3159u    1.0000  
    1.99500  -264.5575u    1.0000  
    1.99600  -264.7991u    1.0000  
    1.99700  -265.0407u    1.0000  
    1.99800  -265.2823u    1.0000  
    1.99900  -265.5239u    1.0000  
    2.00000  -265.7655u    1.0000  
y

          ***** job concluded
 ******  
 *mos

 ****** job statistics summary tnom=  25.000 temp=  25.000 ******
  
 ******  Machine Information  ******
 CPU:
 model name	: Intel(R) Xeon(R) CPU           E5620  @ 2.40GHz
 cpu MHz	: 1596.000
  
 OS:
 Linux version 2.6.32-754.6.3.el6.x86_64 (mockbuild@x86-01.bsys.centos.org) (gcc version 4.4.7 20120313 (Red Hat 4.4.7-23) (GCC) ) #1 SMP Tue Oct 9 17:27:49 UTC 2018


  ******  HSPICE Threads Information  ******

  Command Line Threads Count :     1
  Available CPU Count        :    16
  Actual Threads Count       :     1


  ******  Circuit Statistics  ******
  # nodes       =       3 # elements   =       3
  # resistors   =       0 # capacitors =       0 # inductors   =       0
  # mutual_inds =       0 # vccs       =       0 # vcvs        =       0
  # cccs        =       0 # ccvs       =       0 # volt_srcs   =       2
  # curr_srcs   =       0 # diodes     =       0 # bjts        =       0
  # jfets       =       0 # mosfets    =       0 # U elements  =       0
  # T elements  =       0 # W elements =       0 # B elements  =       0
  # S elements  =       0 # P elements =       0 # va device   =       1
  # vector_srcs =       0 # N elements =       0


  ******  Runtime Statistics (seconds)  ******

  analysis           time    # points   tot. iter  conv.iter
  op point           0.00           1           0
  dc sweep           0.23        2001        8006
  readin             0.31
  errchk             0.00
  setup              0.23
  output             0.00


           peak memory used        305.02 megabytes
           total cpu time            0.94 seconds
           total elapsed time        1.03 seconds
           job started at     01:35:07 11/02/2019
           job ended   at     01:35:08 11/02/2019
           job total runtime         1.03 seconds


 lic: Release hspice token(s) 
 lic: total license checkout elapse time:        0.03(s)
