 ****** HSPICE -- P-2019.06-SP1-1 linux64 (Sep 27 2019) ******                  
  Copyright (c) 1986 - 2019 by Synopsys, Inc. All Rights Reserved.              
  This software and the associated documentation are proprietary
  to Synopsys, Inc. This software may only be used in accordance
  with the terms and conditions of a written license agreement with
  Synopsys, Inc. All other use, reproduction, or distribution of
  this software is strictly prohibited.
  Input File: q4.sp                                                             
  Command line options: /usr/local/Software/Hspice/hspice/P-2019.06-SP1-1/hspice/linux64/hspice -i q4.sp -o q4
  Start time: Sat Nov  2 02:29:53 2019
 lic:  
 lic: FLEXlm: SDK_12.3 
 lic: USER:   EE735_6              HOSTNAME: mcl16 
 lic: HOSTID: "001517a3883c"       PID:      29788 
 lic: Using FLEXlm license file: 
 lic: 27020@mcl16 
 lic: Checkout 1 hspice 
 lic: License/Maintenance for hspice will expire on 02-nov-2019/2019.06 
 lic: 1(in_use)/10(total) FLOATING license(s) on SERVER 27020@mcl16 
 lic:   
 **info** *pvaI* current limit stacksize=10485760, set new limit stacksize=62914560

 Loading pVA library q4.pvadir/pvaRTL_linux64.so...
1****** HSPICE -- P-2019.06-SP1-1 linux64 (Sep 27 2019) ******                  
 ******  
 *mos

 ****** circuit name directory
 circuit number to circuit name directory
   number circuitname                     definition         multiplier
        0 main circuit
        1 x1.                             simple_mos(va)     1.00 
  **info** (q4.sp:13) DC voltage reset to initial transient source value in source 0:vg. new dc=0.0000D+00
 **info** *pvaI* Creating VA module (simple_mos) for instance X1 with gmd reduction

 **info** *pvaI*        termCount=4 diwSize=8 probeSize=13 Qsize=0 Isize=1

 End of GMD creation on Sat Nov  2 02:29:53 2019	GTM/In-use: 2.8750/0.7312 MB


  
      
 *****************************************************************
 ******  option summary
 ******
 runlvl  = 3         bypass  = 2.0000    
  Opening plot unit= 15
 file=q4.pa0

 End of pVA setup    on Sat Nov  2 02:29:53 2019	GTM/In-use: 2.8750/0.7650 MB


 Begin of pVA simulation on Sat Nov  2 02:29:53 2019	GTM/In-use: 2.8750/0.7650 MB


 **info** dc convergence successful at Newton-Raphson method 
 ******  
 *mos

 ****** operating point information tnom=  25.000 temp=  25.000 ******
 ****** operating point status is voltage   simulation time is     0.     
    node    =voltage      node    =voltage      node    =voltage

 +0:2       =   0.      0:3       =   1.8000  0:4       =   1.8000 

 **info** *pvaI* minimum timestep = 1e-20

 ******
 *mos

 ****** transient analysis tnom=  25.000 temp=  25.000 ******
x

 time         voltage   
             2          
    0.          0.      
   10.00000p    1.8000  
   20.00000p    1.8000  
   30.00000p    1.8000  
   40.00000p    1.8000  
   50.00000p    1.8000  
   60.00000p    1.8000  
   70.00000p    1.8000  
   80.00000p    1.8000  
   90.00000p    1.8000  
  100.00000p    1.8000  
  110.00000p    1.8000  
  120.00000p    1.8000  
  130.00000p    1.8000  
  140.00000p    1.8000  
  150.00000p    1.8000  
  160.00000p    1.8000  
  170.00000p    1.8000  
  180.00000p    1.8000  
  190.00000p    1.8000  
  200.00000p    1.8000  
  210.00000p    1.8000  
  220.00000p    1.8000  
  230.00000p    1.8000  
  240.00000p    1.8000  
  250.00000p    1.8000  
  260.00000p    1.8000  
  270.00000p    1.8000  
  280.00000p    1.8000  
  290.00000p    1.8000  
  300.00000p    1.8000  
  310.00000p    1.8000  
  320.00000p    1.8000  
  330.00000p    1.8000  
  340.00000p    1.8000  
  350.00000p    1.8000  
  360.00000p    1.8000  
  370.00000p    1.8000  
  380.00000p    1.8000  
  390.00000p    1.8000  
  400.00000p    1.8000  
  410.00000p    1.8000  
  420.00000p    1.8000  
  430.00000p    1.8000  
  440.00000p    1.8000  
  450.00000p    1.8000  
  460.00000p    1.8000  
  470.00000p    1.8000  
  480.00000p    1.8000  
  490.00000p    1.8000  
  500.00000p    1.8000  
  510.00000p    1.8000  
  520.00000p    1.8000  
  530.00000p    1.8000  
  540.00000p    1.8000  
  550.00000p    1.8000  
  560.00000p    1.8000  
  570.00000p    1.8000  
  580.00000p    1.8000  
  590.00000p    1.8000  
  600.00000p    1.8000  
  610.00000p    1.8000  
  620.00000p    1.8000  
  630.00000p    1.8000  
  640.00000p    1.8000  
  650.00000p    1.8000  
  660.00000p    1.8000  
  670.00000p    1.8000  
  680.00000p    1.8000  
  690.00000p    1.8000  
  700.00000p    1.8000  
  710.00000p    1.8000  
  720.00000p    1.8000  
  730.00000p    1.8000  
  740.00000p    1.8000  
  750.00000p    1.8000  
  760.00000p    1.8000  
  770.00000p    1.8000  
  780.00000p    1.8000  
  790.00000p    1.8000  
  800.00000p    1.8000  
  810.00000p    1.8000  
  820.00000p    1.8000  
  830.00000p    1.8000  
  840.00000p    1.8000  
  850.00000p    1.8000  
  860.00000p    1.8000  
  870.00000p    1.8000  
  880.00000p    1.8000  
  890.00000p    1.8000  
  900.00000p    1.8000  
  910.00000p    1.8000  
  920.00000p    1.8000  
  930.00000p    1.8000  
  940.00000p    1.8000  
  950.00000p    1.8000  
  960.00000p    1.8000  
  970.00000p    1.8000  
  980.00000p    1.8000  
  990.00000p    1.8000  
 1000.00000p    1.8000  
    1.01000n    1.8000  
    1.02000n    0.      
    1.03000n    0.      
    1.04000n    0.      
    1.05000n    0.      
    1.06000n    0.      
    1.07000n    0.      
    1.08000n    0.      
    1.09000n    0.      
    1.10000n    0.      
    1.11000n    0.      
    1.12000n    0.      
    1.13000n    0.      
    1.14000n    0.      
    1.15000n    0.      
    1.16000n    0.      
    1.17000n    0.      
    1.18000n    0.      
    1.19000n    0.      
    1.20000n    0.      
    1.21000n    0.      
    1.22000n    0.      
    1.23000n    0.      
    1.24000n    0.      
    1.25000n    0.      
    1.26000n    0.      
    1.27000n    0.      
    1.28000n    0.      
    1.29000n    0.      
    1.30000n    0.      
    1.31000n    0.      
    1.32000n    0.      
    1.33000n    0.      
    1.34000n    0.      
    1.35000n    0.      
    1.36000n    0.      
    1.37000n    0.      
    1.38000n    0.      
    1.39000n    0.      
    1.40000n    0.      
    1.41000n    0.      
    1.42000n    0.      
    1.43000n    0.      
    1.44000n    0.      
    1.45000n    0.      
    1.46000n    0.      
    1.47000n    0.      
    1.48000n    0.      
    1.49000n    0.      
    1.50000n    0.      
    1.51000n    0.      
    1.52000n    0.      
    1.53000n    0.      
    1.54000n    0.      
    1.55000n    0.      
    1.56000n    0.      
    1.57000n    0.      
    1.58000n    0.      
    1.59000n    0.      
    1.60000n    0.      
    1.61000n    0.      
    1.62000n    0.      
    1.63000n    0.      
    1.64000n    0.      
    1.65000n    0.      
    1.66000n    0.      
    1.67000n    0.      
    1.68000n    0.      
    1.69000n    0.      
    1.70000n    0.      
    1.71000n    0.      
    1.72000n    0.      
    1.73000n    0.      
    1.74000n    0.      
    1.75000n    0.      
    1.76000n    0.      
    1.77000n    0.      
    1.78000n    0.      
    1.79000n    0.      
    1.80000n    0.      
    1.81000n    0.      
    1.82000n    0.      
    1.83000n    0.      
    1.84000n    0.      
    1.85000n    0.      
    1.86000n    0.      
    1.87000n    0.      
    1.88000n    0.      
    1.89000n    0.      
    1.90000n    0.      
    1.91000n    0.      
    1.92000n    0.      
    1.93000n    0.      
    1.94000n    0.      
    1.95000n    0.      
    1.96000n    0.      
    1.97000n    0.      
    1.98000n    0.      
    1.99000n    0.      
    2.00000n    0.      
    2.01000n    1.8000  
    2.02000n    1.8000  
    2.03000n    1.8000  
    2.04000n    1.8000  
    2.05000n    1.8000  
    2.06000n    1.8000  
    2.07000n    1.8000  
    2.08000n    1.8000  
    2.09000n    1.8000  
    2.10000n    1.8000  
    2.11000n    1.8000  
    2.12000n    1.8000  
    2.13000n    1.8000  
    2.14000n    1.8000  
    2.15000n    1.8000  
    2.16000n    1.8000  
    2.17000n    1.8000  
    2.18000n    1.8000  
    2.19000n    1.8000  
    2.20000n    1.8000  
    2.21000n    1.8000  
    2.22000n    1.8000  
    2.23000n    1.8000  
    2.24000n    1.8000  
    2.25000n    1.8000  
    2.26000n    1.8000  
    2.27000n    1.8000  
    2.28000n    1.8000  
    2.29000n    1.8000  
    2.30000n    1.8000  
    2.31000n    1.8000  
    2.32000n    1.8000  
    2.33000n    1.8000  
    2.34000n    1.8000  
    2.35000n    1.8000  
    2.36000n    1.8000  
    2.37000n    1.8000  
    2.38000n    1.8000  
    2.39000n    1.8000  
    2.40000n    1.8000  
    2.41000n    1.8000  
    2.42000n    1.8000  
    2.43000n    1.8000  
    2.44000n    1.8000  
    2.45000n    1.8000  
    2.46000n    1.8000  
    2.47000n    1.8000  
    2.48000n    1.8000  
    2.49000n    1.8000  
    2.50000n    1.8000  
    2.51000n    1.8000  
    2.52000n    1.8000  
    2.53000n    1.8000  
    2.54000n    1.8000  
    2.55000n    1.8000  
    2.56000n    1.8000  
    2.57000n    1.8000  
    2.58000n    1.8000  
    2.59000n    1.8000  
    2.60000n    1.8000  
    2.61000n    1.8000  
    2.62000n    1.8000  
    2.63000n    1.8000  
    2.64000n    1.8000  
    2.65000n    1.8000  
    2.66000n    1.8000  
    2.67000n    1.8000  
    2.68000n    1.8000  
    2.69000n    1.8000  
    2.70000n    1.8000  
    2.71000n    1.8000  
    2.72000n    1.8000  
    2.73000n    1.8000  
    2.74000n    1.8000  
    2.75000n    1.8000  
    2.76000n    1.8000  
    2.77000n    1.8000  
    2.78000n    1.8000  
    2.79000n    1.8000  
    2.80000n    1.8000  
    2.81000n    1.8000  
    2.82000n    1.8000  
    2.83000n    1.8000  
    2.84000n    1.8000  
    2.85000n    1.8000  
    2.86000n    1.8000  
    2.87000n    1.8000  
    2.88000n    1.8000  
    2.89000n    1.8000  
    2.90000n    1.8000  
    2.91000n    1.8000  
    2.92000n    1.8000  
    2.93000n    1.8000  
    2.94000n    1.8000  
    2.95000n    1.8000  
    2.96000n    1.8000  
    2.97000n    1.8000  
    2.98000n    1.8000  
    2.99000n    1.8000  
    3.00000n    1.8000  
    3.01000n    1.8000  
    3.02000n   43.0767f 
    3.03000n    0.      
    3.04000n    0.      
    3.05000n    0.      
    3.06000n    0.      
    3.07000n    0.      
    3.08000n    0.      
    3.09000n    0.      
    3.10000n    0.      
    3.11000n    0.      
    3.12000n    0.      
    3.13000n    0.      
    3.14000n    0.      
    3.15000n    0.      
    3.16000n    0.      
    3.17000n    0.      
    3.18000n    0.      
    3.19000n    0.      
    3.20000n    0.      
    3.21000n    0.      
    3.22000n    0.      
    3.23000n    0.      
    3.24000n    0.      
    3.25000n    0.      
    3.26000n    0.      
    3.27000n    0.      
    3.28000n    0.      
    3.29000n    0.      
    3.30000n    0.      
    3.31000n    0.      
    3.32000n    0.      
    3.33000n    0.      
    3.34000n    0.      
    3.35000n    0.      
    3.36000n    0.      
    3.37000n    0.      
    3.38000n    0.      
    3.39000n    0.      
    3.40000n    0.      
    3.41000n    0.      
    3.42000n    0.      
    3.43000n    0.      
    3.44000n    0.      
    3.45000n    0.      
    3.46000n    0.      
    3.47000n    0.      
    3.48000n    0.      
    3.49000n    0.      
    3.50000n    0.      
    3.51000n    0.      
    3.52000n    0.      
    3.53000n    0.      
    3.54000n    0.      
    3.55000n    0.      
    3.56000n    0.      
    3.57000n    0.      
    3.58000n    0.      
    3.59000n    0.      
    3.60000n    0.      
    3.61000n    0.      
    3.62000n    0.      
    3.63000n    0.      
    3.64000n    0.      
    3.65000n    0.      
    3.66000n    0.      
    3.67000n    0.      
    3.68000n    0.      
    3.69000n    0.      
    3.70000n    0.      
    3.71000n    0.      
    3.72000n    0.      
    3.73000n    0.      
    3.74000n    0.      
    3.75000n    0.      
    3.76000n    0.      
    3.77000n    0.      
    3.78000n    0.      
    3.79000n    0.      
    3.80000n    0.      
    3.81000n    0.      
    3.82000n    0.      
    3.83000n    0.      
    3.84000n    0.      
    3.85000n    0.      
    3.86000n    0.      
    3.87000n    0.      
    3.88000n    0.      
    3.89000n    0.      
    3.90000n    0.      
    3.91000n    0.      
    3.92000n    0.      
    3.93000n    0.      
    3.94000n    0.      
    3.95000n    0.      
    3.96000n    0.      
    3.97000n    0.      
    3.98000n    0.      
    3.99000n    0.      
    4.00000n    0.      
    4.01000n    1.8000  
    4.02000n    1.8000  
    4.03000n    1.8000  
    4.04000n    1.8000  
    4.05000n    1.8000  
    4.06000n    1.8000  
    4.07000n    1.8000  
    4.08000n    1.8000  
    4.09000n    1.8000  
    4.10000n    1.8000  
    4.11000n    1.8000  
    4.12000n    1.8000  
    4.13000n    1.8000  
    4.14000n    1.8000  
    4.15000n    1.8000  
    4.16000n    1.8000  
    4.17000n    1.8000  
    4.18000n    1.8000  
    4.19000n    1.8000  
    4.20000n    1.8000  
    4.21000n    1.8000  
    4.22000n    1.8000  
    4.23000n    1.8000  
    4.24000n    1.8000  
    4.25000n    1.8000  
    4.26000n    1.8000  
    4.27000n    1.8000  
    4.28000n    1.8000  
    4.29000n    1.8000  
    4.30000n    1.8000  
    4.31000n    1.8000  
    4.32000n    1.8000  
    4.33000n    1.8000  
    4.34000n    1.8000  
    4.35000n    1.8000  
    4.36000n    1.8000  
    4.37000n    1.8000  
    4.38000n    1.8000  
    4.39000n    1.8000  
    4.40000n    1.8000  
    4.41000n    1.8000  
    4.42000n    1.8000  
    4.43000n    1.8000  
    4.44000n    1.8000  
    4.45000n    1.8000  
    4.46000n    1.8000  
    4.47000n    1.8000  
    4.48000n    1.8000  
    4.49000n    1.8000  
    4.50000n    1.8000  
    4.51000n    1.8000  
    4.52000n    1.8000  
    4.53000n    1.8000  
    4.54000n    1.8000  
    4.55000n    1.8000  
    4.56000n    1.8000  
    4.57000n    1.8000  
    4.58000n    1.8000  
    4.59000n    1.8000  
    4.60000n    1.8000  
    4.61000n    1.8000  
    4.62000n    1.8000  
    4.63000n    1.8000  
    4.64000n    1.8000  
    4.65000n    1.8000  
    4.66000n    1.8000  
    4.67000n    1.8000  
    4.68000n    1.8000  
    4.69000n    1.8000  
    4.70000n    1.8000  
    4.71000n    1.8000  
    4.72000n    1.8000  
    4.73000n    1.8000  
    4.74000n    1.8000  
    4.75000n    1.8000  
    4.76000n    1.8000  
    4.77000n    1.8000  
    4.78000n    1.8000  
    4.79000n    1.8000  
    4.80000n    1.8000  
    4.81000n    1.8000  
    4.82000n    1.8000  
    4.83000n    1.8000  
    4.84000n    1.8000  
    4.85000n    1.8000  
    4.86000n    1.8000  
    4.87000n    1.8000  
    4.88000n    1.8000  
    4.89000n    1.8000  
    4.90000n    1.8000  
    4.91000n    1.8000  
    4.92000n    1.8000  
    4.93000n    1.8000  
    4.94000n    1.8000  
    4.95000n    1.8000  
    4.96000n    1.8000  
    4.97000n    1.8000  
    4.98000n    1.8000  
    4.99000n    1.8000  
    5.00000n    1.8000  
    5.01000n    1.8000  
    5.02000n    0.      
    5.03000n    0.      
    5.04000n    0.      
    5.05000n    0.      
    5.06000n    0.      
    5.07000n    0.      
    5.08000n    0.      
    5.09000n    0.      
    5.10000n    0.      
    5.11000n    0.      
    5.12000n    0.      
    5.13000n    0.      
    5.14000n    0.      
    5.15000n    0.      
    5.16000n    0.      
    5.17000n    0.      
    5.18000n    0.      
    5.19000n    0.      
    5.20000n    0.      
    5.21000n    0.      
    5.22000n    0.      
    5.23000n    0.      
    5.24000n    0.      
    5.25000n    0.      
    5.26000n    0.      
    5.27000n    0.      
    5.28000n    0.      
    5.29000n    0.      
    5.30000n    0.      
    5.31000n    0.      
    5.32000n    0.      
    5.33000n    0.      
    5.34000n    0.      
    5.35000n    0.      
    5.36000n    0.      
    5.37000n    0.      
    5.38000n    0.      
    5.39000n    0.      
    5.40000n    0.      
    5.41000n    0.      
    5.42000n    0.      
    5.43000n    0.      
    5.44000n    0.      
    5.45000n    0.      
    5.46000n    0.      
    5.47000n    0.      
    5.48000n    0.      
    5.49000n    0.      
    5.50000n    0.      
    5.51000n    0.      
    5.52000n    0.      
    5.53000n    0.      
    5.54000n    0.      
    5.55000n    0.      
    5.56000n    0.      
    5.57000n    0.      
    5.58000n    0.      
    5.59000n    0.      
    5.60000n    0.      
    5.61000n    0.      
    5.62000n    0.      
    5.63000n    0.      
    5.64000n    0.      
    5.65000n    0.      
    5.66000n    0.      
    5.67000n    0.      
    5.68000n    0.      
    5.69000n    0.      
    5.70000n    0.      
    5.71000n    0.      
    5.72000n    0.      
    5.73000n    0.      
    5.74000n    0.      
    5.75000n    0.      
    5.76000n    0.      
    5.77000n    0.      
    5.78000n    0.      
    5.79000n    0.      
    5.80000n    0.      
    5.81000n    0.      
    5.82000n    0.      
    5.83000n    0.      
    5.84000n    0.      
    5.85000n    0.      
    5.86000n    0.      
    5.87000n    0.      
    5.88000n    0.      
    5.89000n    0.      
    5.90000n    0.      
    5.91000n    0.      
    5.92000n    0.      
    5.93000n    0.      
    5.94000n    0.      
    5.95000n    0.      
    5.96000n    0.      
    5.97000n    0.      
    5.98000n    0.      
    5.99000n    0.      
    6.00000n    0.      
    6.01000n    1.8000  
    6.02000n    1.8000  
    6.03000n    1.8000  
    6.04000n    1.8000  
    6.05000n    1.8000  
    6.06000n    1.8000  
    6.07000n    1.8000  
    6.08000n    1.8000  
    6.09000n    1.8000  
    6.10000n    1.8000  
    6.11000n    1.8000  
    6.12000n    1.8000  
    6.13000n    1.8000  
    6.14000n    1.8000  
    6.15000n    1.8000  
    6.16000n    1.8000  
    6.17000n    1.8000  
    6.18000n    1.8000  
    6.19000n    1.8000  
    6.20000n    1.8000  
    6.21000n    1.8000  
    6.22000n    1.8000  
    6.23000n    1.8000  
    6.24000n    1.8000  
    6.25000n    1.8000  
    6.26000n    1.8000  
    6.27000n    1.8000  
    6.28000n    1.8000  
    6.29000n    1.8000  
    6.30000n    1.8000  
    6.31000n    1.8000  
    6.32000n    1.8000  
    6.33000n    1.8000  
    6.34000n    1.8000  
    6.35000n    1.8000  
    6.36000n    1.8000  
    6.37000n    1.8000  
    6.38000n    1.8000  
    6.39000n    1.8000  
    6.40000n    1.8000  
    6.41000n    1.8000  
    6.42000n    1.8000  
    6.43000n    1.8000  
    6.44000n    1.8000  
    6.45000n    1.8000  
    6.46000n    1.8000  
    6.47000n    1.8000  
    6.48000n    1.8000  
    6.49000n    1.8000  
    6.50000n    1.8000  
    6.51000n    1.8000  
    6.52000n    1.8000  
    6.53000n    1.8000  
    6.54000n    1.8000  
    6.55000n    1.8000  
    6.56000n    1.8000  
    6.57000n    1.8000  
    6.58000n    1.8000  
    6.59000n    1.8000  
    6.60000n    1.8000  
    6.61000n    1.8000  
    6.62000n    1.8000  
    6.63000n    1.8000  
    6.64000n    1.8000  
    6.65000n    1.8000  
    6.66000n    1.8000  
    6.67000n    1.8000  
    6.68000n    1.8000  
    6.69000n    1.8000  
    6.70000n    1.8000  
    6.71000n    1.8000  
    6.72000n    1.8000  
    6.73000n    1.8000  
    6.74000n    1.8000  
    6.75000n    1.8000  
    6.76000n    1.8000  
    6.77000n    1.8000  
    6.78000n    1.8000  
    6.79000n    1.8000  
    6.80000n    1.8000  
    6.81000n    1.8000  
    6.82000n    1.8000  
    6.83000n    1.8000  
    6.84000n    1.8000  
    6.85000n    1.8000  
    6.86000n    1.8000  
    6.87000n    1.8000  
    6.88000n    1.8000  
    6.89000n    1.8000  
    6.90000n    1.8000  
    6.91000n    1.8000  
    6.92000n    1.8000  
    6.93000n    1.8000  
    6.94000n    1.8000  
    6.95000n    1.8000  
    6.96000n    1.8000  
    6.97000n    1.8000  
    6.98000n    1.8000  
    6.99000n    1.8000  
    7.00000n    1.8000  
    7.01000n    1.8000  
    7.02000n    0.      
    7.03000n    0.      
    7.04000n    0.      
    7.05000n    0.      
    7.06000n    0.      
    7.07000n    0.      
    7.08000n    0.      
    7.09000n    0.      
    7.10000n    0.      
    7.11000n    0.      
    7.12000n    0.      
    7.13000n    0.      
    7.14000n    0.      
    7.15000n    0.      
    7.16000n    0.      
    7.17000n    0.      
    7.18000n    0.      
    7.19000n    0.      
    7.20000n    0.      
    7.21000n    0.      
    7.22000n    0.      
    7.23000n    0.      
    7.24000n    0.      
    7.25000n    0.      
    7.26000n    0.      
    7.27000n    0.      
    7.28000n    0.      
    7.29000n    0.      
    7.30000n    0.      
    7.31000n    0.      
    7.32000n    0.      
    7.33000n    0.      
    7.34000n    0.      
    7.35000n    0.      
    7.36000n    0.      
    7.37000n    0.      
    7.38000n    0.      
    7.39000n    0.      
    7.40000n    0.      
    7.41000n    0.      
    7.42000n    0.      
    7.43000n    0.      
    7.44000n    0.      
    7.45000n    0.      
    7.46000n    0.      
    7.47000n    0.      
    7.48000n    0.      
    7.49000n    0.      
    7.50000n    0.      
    7.51000n    0.      
    7.52000n    0.      
    7.53000n    0.      
    7.54000n    0.      
    7.55000n    0.      
    7.56000n    0.      
    7.57000n    0.      
    7.58000n    0.      
    7.59000n    0.      
    7.60000n    0.      
    7.61000n    0.      
    7.62000n    0.      
    7.63000n    0.      
    7.64000n    0.      
    7.65000n    0.      
    7.66000n    0.      
    7.67000n    0.      
    7.68000n    0.      
    7.69000n    0.      
    7.70000n    0.      
    7.71000n    0.      
    7.72000n    0.      
    7.73000n    0.      
    7.74000n    0.      
    7.75000n    0.      
    7.76000n    0.      
    7.77000n    0.      
    7.78000n    0.      
    7.79000n    0.      
    7.80000n    0.      
    7.81000n    0.      
    7.82000n    0.      
    7.83000n    0.      
    7.84000n    0.      
    7.85000n    0.      
    7.86000n    0.      
    7.87000n    0.      
    7.88000n    0.      
    7.89000n    0.      
    7.90000n    0.      
    7.91000n    0.      
    7.92000n    0.      
    7.93000n    0.      
    7.94000n    0.      
    7.95000n    0.      
    7.96000n    0.      
    7.97000n    0.      
    7.98000n    0.      
    7.99000n    0.      
    8.00000n    0.      
    8.01000n    1.8000  
    8.02000n    1.8000  
    8.03000n    1.8000  
    8.04000n    1.8000  
    8.05000n    1.8000  
    8.06000n    1.8000  
    8.07000n    1.8000  
    8.08000n    1.8000  
    8.09000n    1.8000  
    8.10000n    1.8000  
    8.11000n    1.8000  
    8.12000n    1.8000  
    8.13000n    1.8000  
    8.14000n    1.8000  
    8.15000n    1.8000  
    8.16000n    1.8000  
    8.17000n    1.8000  
    8.18000n    1.8000  
    8.19000n    1.8000  
    8.20000n    1.8000  
    8.21000n    1.8000  
    8.22000n    1.8000  
    8.23000n    1.8000  
    8.24000n    1.8000  
    8.25000n    1.8000  
    8.26000n    1.8000  
    8.27000n    1.8000  
    8.28000n    1.8000  
    8.29000n    1.8000  
    8.30000n    1.8000  
    8.31000n    1.8000  
    8.32000n    1.8000  
    8.33000n    1.8000  
    8.34000n    1.8000  
    8.35000n    1.8000  
    8.36000n    1.8000  
    8.37000n    1.8000  
    8.38000n    1.8000  
    8.39000n    1.8000  
    8.40000n    1.8000  
    8.41000n    1.8000  
    8.42000n    1.8000  
    8.43000n    1.8000  
    8.44000n    1.8000  
    8.45000n    1.8000  
    8.46000n    1.8000  
    8.47000n    1.8000  
    8.48000n    1.8000  
    8.49000n    1.8000  
    8.50000n    1.8000  
    8.51000n    1.8000  
    8.52000n    1.8000  
    8.53000n    1.8000  
    8.54000n    1.8000  
    8.55000n    1.8000  
    8.56000n    1.8000  
    8.57000n    1.8000  
    8.58000n    1.8000  
    8.59000n    1.8000  
    8.60000n    1.8000  
    8.61000n    1.8000  
    8.62000n    1.8000  
    8.63000n    1.8000  
    8.64000n    1.8000  
    8.65000n    1.8000  
    8.66000n    1.8000  
    8.67000n    1.8000  
    8.68000n    1.8000  
    8.69000n    1.8000  
    8.70000n    1.8000  
    8.71000n    1.8000  
    8.72000n    1.8000  
    8.73000n    1.8000  
    8.74000n    1.8000  
    8.75000n    1.8000  
    8.76000n    1.8000  
    8.77000n    1.8000  
    8.78000n    1.8000  
    8.79000n    1.8000  
    8.80000n    1.8000  
    8.81000n    1.8000  
    8.82000n    1.8000  
    8.83000n    1.8000  
    8.84000n    1.8000  
    8.85000n    1.8000  
    8.86000n    1.8000  
    8.87000n    1.8000  
    8.88000n    1.8000  
    8.89000n    1.8000  
    8.90000n    1.8000  
    8.91000n    1.8000  
    8.92000n    1.8000  
    8.93000n    1.8000  
    8.94000n    1.8000  
    8.95000n    1.8000  
    8.96000n    1.8000  
    8.97000n    1.8000  
    8.98000n    1.8000  
    8.99000n    1.8000  
    9.00000n    1.8000  
    9.01000n    1.8000  
    9.02000n    0.      
    9.03000n    0.      
    9.04000n    0.      
    9.05000n    0.      
    9.06000n    0.      
    9.07000n    0.      
    9.08000n    0.      
    9.09000n    0.      
    9.10000n    0.      
    9.11000n    0.      
    9.12000n    0.      
    9.13000n    0.      
    9.14000n    0.      
    9.15000n    0.      
    9.16000n    0.      
    9.17000n    0.      
    9.18000n    0.      
    9.19000n    0.      
    9.20000n    0.      
    9.21000n    0.      
    9.22000n    0.      
    9.23000n    0.      
    9.24000n    0.      
    9.25000n    0.      
    9.26000n    0.      
    9.27000n    0.      
    9.28000n    0.      
    9.29000n    0.      
    9.30000n    0.      
    9.31000n    0.      
    9.32000n    0.      
    9.33000n    0.      
    9.34000n    0.      
    9.35000n    0.      
    9.36000n    0.      
    9.37000n    0.      
    9.38000n    0.      
    9.39000n    0.      
    9.40000n    0.      
    9.41000n    0.      
    9.42000n    0.      
    9.43000n    0.      
    9.44000n    0.      
    9.45000n    0.      
    9.46000n    0.      
    9.47000n    0.      
    9.48000n    0.      
    9.49000n    0.      
    9.50000n    0.      
    9.51000n    0.      
    9.52000n    0.      
    9.53000n    0.      
    9.54000n    0.      
    9.55000n    0.      
    9.56000n    0.      
    9.57000n    0.      
    9.58000n    0.      
    9.59000n    0.      
    9.60000n    0.      
    9.61000n    0.      
    9.62000n    0.      
    9.63000n    0.      
    9.64000n    0.      
    9.65000n    0.      
    9.66000n    0.      
    9.67000n    0.      
    9.68000n    0.      
    9.69000n    0.      
    9.70000n    0.      
    9.71000n    0.      
    9.72000n    0.      
    9.73000n    0.      
    9.74000n    0.      
    9.75000n    0.      
    9.76000n    0.      
    9.77000n    0.      
    9.78000n    0.      
    9.79000n    0.      
    9.80000n    0.      
    9.81000n    0.      
    9.82000n    0.      
    9.83000n    0.      
    9.84000n    0.      
    9.85000n    0.      
    9.86000n    0.      
    9.87000n    0.      
    9.88000n    0.      
    9.89000n    0.      
    9.90000n    0.      
    9.91000n    0.      
    9.92000n    0.      
    9.93000n    0.      
    9.94000n    0.      
    9.95000n    0.      
    9.96000n    0.      
    9.97000n    0.      
    9.98000n    0.      
    9.99000n    0.      
   10.00000n    0.      
y

          ***** job concluded
 ******  
 *mos

 ****** job statistics summary tnom=  25.000 temp=  25.000 ******
  
 ******  Machine Information  ******
 CPU:
 model name	: Intel(R) Xeon(R) CPU           E5620  @ 2.40GHz
 cpu MHz	: 1596.000
  
 OS:
 Linux version 2.6.32-754.6.3.el6.x86_64 (mockbuild@x86-01.bsys.centos.org) (gcc version 4.4.7 20120313 (Red Hat 4.4.7-23) (GCC) ) #1 SMP Tue Oct 9 17:27:49 UTC 2018


  ******  HSPICE Threads Information  ******

  Command Line Threads Count :     1
  Available CPU Count        :    16
  Actual Threads Count       :     1


  ******  Circuit Statistics  ******
  # nodes       =       4 # elements   =       4
  # resistors   =       1 # capacitors =       0 # inductors   =       0
  # mutual_inds =       0 # vccs       =       0 # vcvs        =       0
  # cccs        =       0 # ccvs       =       0 # volt_srcs   =       2
  # curr_srcs   =       0 # diodes     =       0 # bjts        =       0
  # jfets       =       0 # mosfets    =       0 # U elements  =       0
  # T elements  =       0 # W elements =       0 # B elements  =       0
  # S elements  =       0 # P elements =       0 # va device   =       1
  # vector_srcs =       0 # N elements =       0


  ******  Runtime Statistics (seconds)  ******

  analysis           time    # points   tot. iter  conv.iter
  op point           0.14           1           4
  transient          0.00        1001         245         115 rev=         9
  readin             0.56
  errchk             0.00
  setup              0.08
  output             0.00


           peak memory used        306.15 megabytes
           total cpu time            0.80 seconds
           total elapsed time        0.89 seconds
           job started at     02:29:53 11/02/2019
           job ended   at     02:29:54 11/02/2019
           job total runtime         0.89 seconds


 lic: Release hspice token(s) 
 lic: total license checkout elapse time:        0.03(s)
