 ****** HSPICE -- P-2019.06-SP1-1 linux64 (Sep 27 2019) ******                  
  Copyright (c) 1986 - 2019 by Synopsys, Inc. All Rights Reserved.              
  This software and the associated documentation are proprietary
  to Synopsys, Inc. This software may only be used in accordance
  with the terms and conditions of a written license agreement with
  Synopsys, Inc. All other use, reproduction, or distribution of
  this software is strictly prohibited.
  Input File: q3.sp                                                             
  Command line options: /usr/local/Software/Hspice/hspice/P-2019.06-SP1-1/hspice/linux64/hspice -i q3.sp -o q3
  Start time: Thu Nov  7 18:17:02 2019
 lic:  
 lic: FLEXlm: SDK_12.3 
 lic: USER:   EE735_6              HOSTNAME: mcl16 
 lic: HOSTID: "001517a3883c"       PID:      29246 
 lic: Using FLEXlm license file: 
 lic: 27020@mcl16 
 lic: Checkout 1 hspice 
 lic: License/Maintenance for hspice will expire on 14-nov-2019/2019.06 
 lic: 1(in_use)/10(total) FLOATING license(s) on SERVER 27020@mcl16 
 lic:   
 **info** *pvaI* current limit stacksize=10485760, set new limit stacksize=62914560

 **info** *pvaI* Module (simple_mos): 4 unexpanded port, 0 init, 5 behav, 2 contrib, 49/3 expr(s)

 **info** *pvaI*        Has DIS(ST), 0/0 afCount, 0 MT, dlg, IO(0/0/1/0)

 **info** *pvaI*        0 gmdIsThreadSafe (ST)

 **info** *pvaI*        0 const-G and 0 const-C, Has switchBranch, 22 bypassOpt, 0 bus2scalar, 0 vwb

 **info** *pvaI*        set_va_exp = 80 [80.0, 704.0] set by default

 **warning** *pvaW*        variable 'P_EPS' declared but not used in RHS, deleted (q3.va:20)

 **warning** *pvaW*                   To relax this rule, use 'setenv PVA_KEEP_VARS 1' to keep variables for probing.

 **warning** *pvaW*        variable 'PHI' declared but not used in RHS, deleted (q3.va:22)

 **warning** *pvaW*        variable 'COX' declared but not used in RHS, deleted (q3.va:22)

 **info** *pvaI*        port 'b' at 4 declared, but not used

 **info** *pvaI*        generated 0 flow node(s) during compilation.

 **info** *pvaI* #### Total 431 line-size(s), 49/3 expr(s), 2 contr(s), 0 init(s), 5 behav(s), 4 port(s)

 Loading pVA library q3.pvadir/pvaRTL_linux64.so...
1****** HSPICE -- P-2019.06-SP1-1 linux64 (Sep 27 2019) ******                  
 ******  
 *mos

 ****** circuit name directory
 circuit number to circuit name directory
   number circuitname                     definition         multiplier
        0 main circuit
        1 x1.                             simple_mos(va)     1.00 
 **info** *pvaI* Creating VA module (simple_mos) for instance X1 with gmd reduction

 **info** *pvaI*        termCount=4 diwSize=8 probeSize=19 Qsize=0 Isize=1

 End of GMD creation on Thu Nov  7 18:17:04 2019	GTM/In-use: 1.8750/0.4505 MB


  
      
 *****************************************************************
 ******  option summary
 ******
 runlvl  = 3         bypass  = 2.0000    
  Opening plot unit= 15
 file=q3.pa0

 End of pVA setup    on Thu Nov  7 18:17:04 2019	GTM/In-use: 1.8750/0.4844 MB


 Begin of pVA simulation on Thu Nov  7 18:17:04 2019	GTM/In-use: 1.8750/0.4844 MB


 ******
 *mos

 ****** dc transfer curves tnom=  25.000 temp=  25.000 ******
x

 volt         current   
             vd         
    0.          0.      
    1.00000m    0.      
    2.00000m    0.      
    3.00000m    0.      
    4.00000m    0.      
    5.00000m    0.      
    6.00000m    0.      
    7.00000m    0.      
    8.00000m    0.      
    9.00000m    0.      
   10.00000m    0.      
   11.00000m    0.      
   12.00000m    0.      
   13.00000m    0.      
   14.00000m    0.      
   15.00000m    0.      
   16.00000m    0.      
   17.00000m    0.      
   18.00000m    0.      
   19.00000m    0.      
   20.00000m    0.      
   21.00000m    0.      
   22.00000m    0.      
   23.00000m    0.      
   24.00000m    0.      
   25.00000m    0.      
   26.00000m    0.      
   27.00000m    0.      
   28.00000m    0.      
   29.00000m    0.      
   30.00000m    0.      
   31.00000m    0.      
   32.00000m    0.      
   33.00000m    0.      
   34.00000m    0.      
   35.00000m    0.      
   36.00000m    0.      
   37.00000m    0.      
   38.00000m    0.      
   39.00000m    0.      
   40.00000m    0.      
   41.00000m    0.      
   42.00000m    0.      
   43.00000m    0.      
   44.00000m    0.      
   45.00000m    0.      
   46.00000m    0.      
   47.00000m    0.      
   48.00000m    0.      
   49.00000m    0.      
   50.00000m    0.      
   51.00000m    0.      
   52.00000m    0.      
   53.00000m    0.      
   54.00000m    0.      
   55.00000m    0.      
   56.00000m    0.      
   57.00000m    0.      
   58.00000m    0.      
   59.00000m    0.      
   60.00000m    0.      
   61.00000m    0.      
   62.00000m    0.      
   63.00000m    0.      
   64.00000m    0.      
   65.00000m    0.      
   66.00000m    0.      
   67.00000m    0.      
   68.00000m    0.      
   69.00000m    0.      
   70.00000m    0.      
   71.00000m    0.      
   72.00000m    0.      
   73.00000m    0.      
   74.00000m    0.      
   75.00000m    0.      
   76.00000m    0.      
   77.00000m    0.      
   78.00000m    0.      
   79.00000m    0.      
   80.00000m    0.      
   81.00000m    0.      
   82.00000m    0.      
   83.00000m    0.      
   84.00000m    0.      
   85.00000m    0.      
   86.00000m    0.      
   87.00000m    0.      
   88.00000m    0.      
   89.00000m    0.      
   90.00000m    0.      
   91.00000m    0.      
   92.00000m    0.      
   93.00000m    0.      
   94.00000m    0.      
   95.00000m    0.      
   96.00000m    0.      
   97.00000m    0.      
   98.00000m    0.      
   99.00000m    0.      
  100.00000m    0.      
  101.00000m    0.      
  102.00000m    0.      
  103.00000m    0.      
  104.00000m    0.      
  105.00000m    0.      
  106.00000m    0.      
  107.00000m    0.      
  108.00000m    0.      
  109.00000m    0.      
  110.00000m    0.      
  111.00000m    0.      
  112.00000m    0.      
  113.00000m    0.      
  114.00000m    0.      
  115.00000m    0.      
  116.00000m    0.      
  117.00000m    0.      
  118.00000m    0.      
  119.00000m    0.      
  120.00000m    0.      
  121.00000m    0.      
  122.00000m    0.      
  123.00000m    0.      
  124.00000m    0.      
  125.00000m    0.      
  126.00000m    0.      
  127.00000m    0.      
  128.00000m    0.      
  129.00000m    0.      
  130.00000m    0.      
  131.00000m    0.      
  132.00000m    0.      
  133.00000m    0.      
  134.00000m    0.      
  135.00000m    0.      
  136.00000m    0.      
  137.00000m    0.      
  138.00000m    0.      
  139.00000m    0.      
  140.00000m    0.      
  141.00000m    0.      
  142.00000m    0.      
  143.00000m    0.      
  144.00000m    0.      
  145.00000m    0.      
  146.00000m    0.      
  147.00000m    0.      
  148.00000m    0.      
  149.00000m    0.      
  150.00000m    0.      
  151.00000m    0.      
  152.00000m    0.      
  153.00000m    0.      
  154.00000m    0.      
  155.00000m    0.      
  156.00000m    0.      
  157.00000m    0.      
  158.00000m    0.      
  159.00000m    0.      
  160.00000m    0.      
  161.00000m    0.      
  162.00000m    0.      
  163.00000m    0.      
  164.00000m    0.      
  165.00000m    0.      
  166.00000m    0.      
  167.00000m    0.      
  168.00000m    0.      
  169.00000m    0.      
  170.00000m    0.      
  171.00000m    0.      
  172.00000m    0.      
  173.00000m    0.      
  174.00000m    0.      
  175.00000m    0.      
  176.00000m    0.      
  177.00000m    0.      
  178.00000m    0.      
  179.00000m    0.      
  180.00000m    0.      
  181.00000m    0.      
  182.00000m    0.      
  183.00000m    0.      
  184.00000m    0.      
  185.00000m    0.      
  186.00000m    0.      
  187.00000m    0.      
  188.00000m    0.      
  189.00000m    0.      
  190.00000m    0.      
  191.00000m    0.      
  192.00000m    0.      
  193.00000m    0.      
  194.00000m    0.      
  195.00000m    0.      
  196.00000m    0.      
  197.00000m    0.      
  198.00000m    0.      
  199.00000m    0.      
  200.00000m    0.      
  201.00000m    0.      
  202.00000m    0.      
  203.00000m    0.      
  204.00000m    0.      
  205.00000m    0.      
  206.00000m    0.      
  207.00000m    0.      
  208.00000m    0.      
  209.00000m    0.      
  210.00000m    0.      
  211.00000m    0.      
  212.00000m    0.      
  213.00000m    0.      
  214.00000m    0.      
  215.00000m    0.      
  216.00000m    0.      
  217.00000m    0.      
  218.00000m    0.      
  219.00000m    0.      
  220.00000m    0.      
  221.00000m    0.      
  222.00000m    0.      
  223.00000m    0.      
  224.00000m    0.      
  225.00000m    0.      
  226.00000m    0.      
  227.00000m    0.      
  228.00000m    0.      
  229.00000m    0.      
  230.00000m    0.      
  231.00000m    0.      
  232.00000m    0.      
  233.00000m    0.      
  234.00000m    0.      
  235.00000m    0.      
  236.00000m    0.      
  237.00000m    0.      
  238.00000m    0.      
  239.00000m    0.      
  240.00000m    0.      
  241.00000m    0.      
  242.00000m    0.      
  243.00000m    0.      
  244.00000m    0.      
  245.00000m    0.      
  246.00000m    0.      
  247.00000m    0.      
  248.00000m    0.      
  249.00000m    0.      
  250.00000m    0.      
  251.00000m    0.      
  252.00000m    0.      
  253.00000m    0.      
  254.00000m    0.      
  255.00000m    0.      
  256.00000m    0.      
  257.00000m    0.      
  258.00000m    0.      
  259.00000m    0.      
  260.00000m    0.      
  261.00000m    0.      
  262.00000m    0.      
  263.00000m    0.      
  264.00000m    0.      
  265.00000m    0.      
  266.00000m    0.      
  267.00000m    0.      
  268.00000m    0.      
  269.00000m    0.      
  270.00000m    0.      
  271.00000m    0.      
  272.00000m    0.      
  273.00000m    0.      
  274.00000m    0.      
  275.00000m    0.      
  276.00000m    0.      
  277.00000m    0.      
  278.00000m    0.      
  279.00000m    0.      
  280.00000m    0.      
  281.00000m    0.      
  282.00000m    0.      
  283.00000m    0.      
  284.00000m    0.      
  285.00000m    0.      
  286.00000m    0.      
  287.00000m    0.      
  288.00000m    0.      
  289.00000m    0.      
  290.00000m    0.      
  291.00000m    0.      
  292.00000m    0.      
  293.00000m    0.      
  294.00000m    0.      
  295.00000m    0.      
  296.00000m    0.      
  297.00000m    0.      
  298.00000m    0.      
  299.00000m    0.      
  300.00000m    0.      
  301.00000m    0.      
  302.00000m    0.      
  303.00000m    0.      
  304.00000m    0.      
  305.00000m    0.      
  306.00000m    0.      
  307.00000m    0.      
  308.00000m    0.      
  309.00000m    0.      
  310.00000m    0.      
  311.00000m    0.      
  312.00000m    0.      
  313.00000m    0.      
  314.00000m    0.      
  315.00000m    0.      
  316.00000m    0.      
  317.00000m    0.      
  318.00000m    0.      
  319.00000m    0.      
  320.00000m    0.      
  321.00000m    0.      
  322.00000m    0.      
  323.00000m    0.      
  324.00000m    0.      
  325.00000m    0.      
  326.00000m    0.      
  327.00000m    0.      
  328.00000m    0.      
  329.00000m    0.      
  330.00000m    0.      
  331.00000m    0.      
  332.00000m    0.      
  333.00000m    0.      
  334.00000m    0.      
  335.00000m    0.      
  336.00000m    0.      
  337.00000m    0.      
  338.00000m    0.      
  339.00000m    0.      
  340.00000m    0.      
  341.00000m    0.      
  342.00000m    0.      
  343.00000m    0.      
  344.00000m    0.      
  345.00000m    0.      
  346.00000m    0.      
  347.00000m    0.      
  348.00000m    0.      
  349.00000m    0.      
  350.00000m    0.      
  351.00000m    0.      
  352.00000m    0.      
  353.00000m    0.      
  354.00000m    0.      
  355.00000m    0.      
  356.00000m    0.      
  357.00000m    0.      
  358.00000m    0.      
  359.00000m    0.      
  360.00000m    0.      
  361.00000m    0.      
  362.00000m    0.      
  363.00000m    0.      
  364.00000m    0.      
  365.00000m    0.      
  366.00000m    0.      
  367.00000m    0.      
  368.00000m    0.      
  369.00000m    0.      
  370.00000m    0.      
  371.00000m    0.      
  372.00000m    0.      
  373.00000m    0.      
  374.00000m    0.      
  375.00000m    0.      
  376.00000m    0.      
  377.00000m    0.      
  378.00000m    0.      
  379.00000m    0.      
  380.00000m    0.      
  381.00000m    0.      
  382.00000m    0.      
  383.00000m    0.      
  384.00000m    0.      
  385.00000m    0.      
  386.00000m    0.      
  387.00000m    0.      
  388.00000m    0.      
  389.00000m    0.      
  390.00000m    0.      
  391.00000m    0.      
  392.00000m    0.      
  393.00000m    0.      
  394.00000m    0.      
  395.00000m    0.      
  396.00000m    0.      
  397.00000m    0.      
  398.00000m    0.      
  399.00000m    0.      
  400.00000m    0.      
  401.00000m    0.      
  402.00000m    0.      
  403.00000m    0.      
  404.00000m    0.      
  405.00000m    0.      
  406.00000m    0.      
  407.00000m    0.      
  408.00000m    0.      
  409.00000m    0.      
  410.00000m    0.      
  411.00000m    0.      
  412.00000m    0.      
  413.00000m    0.      
  414.00000m    0.      
  415.00000m    0.      
  416.00000m    0.      
  417.00000m    0.      
  418.00000m    0.      
  419.00000m    0.      
  420.00000m    0.      
  421.00000m    0.      
  422.00000m    0.      
  423.00000m    0.      
  424.00000m    0.      
  425.00000m    0.      
  426.00000m    0.      
  427.00000m    0.      
  428.00000m    0.      
  429.00000m    0.      
  430.00000m    0.      
  431.00000m    0.      
  432.00000m    0.      
  433.00000m    0.      
  434.00000m    0.      
  435.00000m    0.      
  436.00000m    0.      
  437.00000m    0.      
  438.00000m    0.      
  439.00000m    0.      
  440.00000m    0.      
  441.00000m    0.      
  442.00000m    0.      
  443.00000m    0.      
  444.00000m    0.      
  445.00000m    0.      
  446.00000m    0.      
  447.00000m    0.      
  448.00000m    0.      
  449.00000m    0.      
  450.00000m    0.      
  451.00000m    0.      
  452.00000m    0.      
  453.00000m    0.      
  454.00000m    0.      
  455.00000m    0.      
  456.00000m    0.      
  457.00000m    0.      
  458.00000m    0.      
  459.00000m    0.      
  460.00000m    0.      
  461.00000m    0.      
  462.00000m    0.      
  463.00000m    0.      
  464.00000m    0.      
  465.00000m    0.      
  466.00000m    0.      
  467.00000m    0.      
  468.00000m    0.      
  469.00000m    0.      
  470.00000m    0.      
  471.00000m    0.      
  472.00000m    0.      
  473.00000m    0.      
  474.00000m    0.      
  475.00000m    0.      
  476.00000m    0.      
  477.00000m    0.      
  478.00000m    0.      
  479.00000m    0.      
  480.00000m    0.      
  481.00000m    0.      
  482.00000m    0.      
  483.00000m    0.      
  484.00000m    0.      
  485.00000m    0.      
  486.00000m    0.      
  487.00000m    0.      
  488.00000m    0.      
  489.00000m    0.      
  490.00000m    0.      
  491.00000m    0.      
  492.00000m    0.      
  493.00000m    0.      
  494.00000m    0.      
  495.00000m    0.      
  496.00000m    0.      
  497.00000m    0.      
  498.00000m    0.      
  499.00000m    0.      
  500.00000m    0.      
  501.00000m    0.      
  502.00000m    0.      
  503.00000m    0.      
  504.00000m    0.      
  505.00000m    0.      
  506.00000m    0.      
  507.00000m    0.      
  508.00000m    0.      
  509.00000m    0.      
  510.00000m    0.      
  511.00000m    0.      
  512.00000m    0.      
  513.00000m    0.      
  514.00000m    0.      
  515.00000m    0.      
  516.00000m    0.      
  517.00000m    0.      
  518.00000m    0.      
  519.00000m    0.      
  520.00000m    0.      
  521.00000m    0.      
  522.00000m    0.      
  523.00000m    0.      
  524.00000m    0.      
  525.00000m    0.      
  526.00000m    0.      
  527.00000m    0.      
  528.00000m    0.      
  529.00000m    0.      
  530.00000m    0.      
  531.00000m    0.      
  532.00000m    0.      
  533.00000m    0.      
  534.00000m    0.      
  535.00000m    0.      
  536.00000m    0.      
  537.00000m    0.      
  538.00000m    0.      
  539.00000m    0.      
  540.00000m    0.      
  541.00000m    0.      
  542.00000m    0.      
  543.00000m    0.      
  544.00000m    0.      
  545.00000m    0.      
  546.00000m    0.      
  547.00000m    0.      
  548.00000m    0.      
  549.00000m    0.      
  550.00000m    0.      
  551.00000m    0.      
  552.00000m    0.      
  553.00000m    0.      
  554.00000m    0.      
  555.00000m    0.      
  556.00000m    0.      
  557.00000m    0.      
  558.00000m    0.      
  559.00000m    0.      
  560.00000m    0.      
  561.00000m    0.      
  562.00000m    0.      
  563.00000m    0.      
  564.00000m    0.      
  565.00000m    0.      
  566.00000m    0.      
  567.00000m    0.      
  568.00000m    0.      
  569.00000m    0.      
  570.00000m    0.      
  571.00000m    0.      
  572.00000m    0.      
  573.00000m    0.      
  574.00000m    0.      
  575.00000m    0.      
  576.00000m    0.      
  577.00000m    0.      
  578.00000m    0.      
  579.00000m    0.      
  580.00000m    0.      
  581.00000m    0.      
  582.00000m    0.      
  583.00000m    0.      
  584.00000m    0.      
  585.00000m    0.      
  586.00000m    0.      
  587.00000m    0.      
  588.00000m    0.      
  589.00000m    0.      
  590.00000m    0.      
  591.00000m    0.      
  592.00000m    0.      
  593.00000m    0.      
  594.00000m    0.      
  595.00000m    0.      
  596.00000m    0.      
  597.00000m    0.      
  598.00000m    0.      
  599.00000m    0.      
  600.00000m    0.      
  601.00000m    0.      
  602.00000m    0.      
  603.00000m    0.      
  604.00000m    0.      
  605.00000m    0.      
  606.00000m    0.      
  607.00000m    0.      
  608.00000m    0.      
  609.00000m    0.      
  610.00000m    0.      
  611.00000m    0.      
  612.00000m    0.      
  613.00000m    0.      
  614.00000m    0.      
  615.00000m    0.      
  616.00000m    0.      
  617.00000m    0.      
  618.00000m    0.      
  619.00000m    0.      
  620.00000m    0.      
  621.00000m    0.      
  622.00000m    0.      
  623.00000m    0.      
  624.00000m    0.      
  625.00000m    0.      
  626.00000m    0.      
  627.00000m    0.      
  628.00000m    0.      
  629.00000m    0.      
  630.00000m    0.      
  631.00000m    0.      
  632.00000m    0.      
  633.00000m    0.      
  634.00000m    0.      
  635.00000m    0.      
  636.00000m    0.      
  637.00000m    0.      
  638.00000m    0.      
  639.00000m    0.      
  640.00000m    0.      
  641.00000m    0.      
  642.00000m    0.      
  643.00000m    0.      
  644.00000m    0.      
  645.00000m    0.      
  646.00000m    0.      
  647.00000m    0.      
  648.00000m    0.      
  649.00000m    0.      
  650.00000m    0.      
  651.00000m    0.      
  652.00000m    0.      
  653.00000m    0.      
  654.00000m    0.      
  655.00000m    0.      
  656.00000m    0.      
  657.00000m    0.      
  658.00000m    0.      
  659.00000m    0.      
  660.00000m    0.      
  661.00000m    0.      
  662.00000m    0.      
  663.00000m    0.      
  664.00000m    0.      
  665.00000m    0.      
  666.00000m    0.      
  667.00000m    0.      
  668.00000m    0.      
  669.00000m    0.      
  670.00000m    0.      
  671.00000m    0.      
  672.00000m    0.      
  673.00000m    0.      
  674.00000m    0.      
  675.00000m    0.      
  676.00000m    0.      
  677.00000m    0.      
  678.00000m    0.      
  679.00000m    0.      
  680.00000m    0.      
  681.00000m    0.      
  682.00000m    0.      
  683.00000m    0.      
  684.00000m    0.      
  685.00000m    0.      
  686.00000m    0.      
  687.00000m    0.      
  688.00000m    0.      
  689.00000m    0.      
  690.00000m    0.      
  691.00000m    0.      
  692.00000m    0.      
  693.00000m    0.      
  694.00000m    0.      
  695.00000m    0.      
  696.00000m    0.      
  697.00000m    0.      
  698.00000m    0.      
  699.00000m    0.      
  700.00000m    0.      
  701.00000m    0.      
  702.00000m    0.      
  703.00000m    0.      
  704.00000m    0.      
  705.00000m    0.      
  706.00000m    0.      
  707.00000m    0.      
  708.00000m    0.      
  709.00000m    0.      
  710.00000m    0.      
  711.00000m    0.      
  712.00000m    0.      
  713.00000m    0.      
  714.00000m    0.      
  715.00000m    0.      
  716.00000m    0.      
  717.00000m    0.      
  718.00000m    0.      
  719.00000m    0.      
  720.00000m    0.      
  721.00000m    0.      
  722.00000m    0.      
  723.00000m    0.      
  724.00000m    0.      
  725.00000m    0.      
  726.00000m    0.      
  727.00000m    0.      
  728.00000m    0.      
  729.00000m    0.      
  730.00000m    0.      
  731.00000m    0.      
  732.00000m    0.      
  733.00000m    0.      
  734.00000m    0.      
  735.00000m    0.      
  736.00000m    0.      
  737.00000m    0.      
  738.00000m    0.      
  739.00000m    0.      
  740.00000m    0.      
  741.00000m    0.      
  742.00000m    0.      
  743.00000m    0.      
  744.00000m    0.      
  745.00000m    0.      
  746.00000m    0.      
  747.00000m    0.      
  748.00000m    0.      
  749.00000m    0.      
  750.00000m    0.      
  751.00000m    0.      
  752.00000m    0.      
  753.00000m    0.      
  754.00000m    0.      
  755.00000m    0.      
  756.00000m    0.      
  757.00000m    0.      
  758.00000m    0.      
  759.00000m    0.      
  760.00000m    0.      
  761.00000m    0.      
  762.00000m    0.      
  763.00000m    0.      
  764.00000m    0.      
  765.00000m    0.      
  766.00000m    0.      
  767.00000m    0.      
  768.00000m    0.      
  769.00000m    0.      
  770.00000m    0.      
  771.00000m    0.      
  772.00000m    0.      
  773.00000m    0.      
  774.00000m    0.      
  775.00000m    0.      
  776.00000m    0.      
  777.00000m    0.      
  778.00000m    0.      
  779.00000m    0.      
  780.00000m    0.      
  781.00000m    0.      
  782.00000m    0.      
  783.00000m    0.      
  784.00000m    0.      
  785.00000m    0.      
  786.00000m    0.      
  787.00000m    0.      
  788.00000m    0.      
  789.00000m    0.      
  790.00000m    0.      
  791.00000m    0.      
  792.00000m    0.      
  793.00000m    0.      
  794.00000m    0.      
  795.00000m    0.      
  796.00000m    0.      
  797.00000m    0.      
  798.00000m    0.      
  799.00000m    0.      
  800.00000m    0.      
  801.00000m    0.      
  802.00000m    0.      
  803.00000m    0.      
  804.00000m    0.      
  805.00000m    0.      
  806.00000m    0.      
  807.00000m    0.      
  808.00000m    0.      
  809.00000m    0.      
  810.00000m    0.      
  811.00000m    0.      
  812.00000m    0.      
  813.00000m    0.      
  814.00000m    0.      
  815.00000m    0.      
  816.00000m    0.      
  817.00000m    0.      
  818.00000m    0.      
  819.00000m    0.      
  820.00000m    0.      
  821.00000m    0.      
  822.00000m    0.      
  823.00000m    0.      
  824.00000m    0.      
  825.00000m    0.      
  826.00000m    0.      
  827.00000m    0.      
  828.00000m    0.      
  829.00000m    0.      
  830.00000m    0.      
  831.00000m    0.      
  832.00000m    0.      
  833.00000m    0.      
  834.00000m    0.      
  835.00000m    0.      
  836.00000m    0.      
  837.00000m    0.      
  838.00000m    0.      
  839.00000m    0.      
  840.00000m    0.      
  841.00000m    0.      
  842.00000m    0.      
  843.00000m    0.      
  844.00000m    0.      
  845.00000m    0.      
  846.00000m    0.      
  847.00000m    0.      
  848.00000m    0.      
  849.00000m    0.      
  850.00000m    0.      
  851.00000m    0.      
  852.00000m    0.      
  853.00000m    0.      
  854.00000m    0.      
  855.00000m    0.      
  856.00000m    0.      
  857.00000m    0.      
  858.00000m    0.      
  859.00000m    0.      
  860.00000m    0.      
  861.00000m    0.      
  862.00000m    0.      
  863.00000m    0.      
  864.00000m    0.      
  865.00000m  -43.7063p 
  866.00000m -309.8336p 
  867.00000m -817.5659p 
  868.00000m   -1.5669n 
  869.00000m   -2.5578n 
  870.00000m   -3.7904n 
  871.00000m   -5.2645n 
  872.00000m   -6.9803n 
  873.00000m   -8.9377n 
  874.00000m  -11.1366n 
  875.00000m  -13.5772n 
  876.00000m  -16.2594n 
  877.00000m  -19.1832n 
  878.00000m  -22.3486n 
  879.00000m  -25.7555n 
  880.00000m  -29.4041n 
  881.00000m  -33.2943n 
  882.00000m  -37.4262n 
  883.00000m  -41.7996n 
  884.00000m  -46.4146n 
  885.00000m  -51.2712n 
  886.00000m  -56.3694n 
  887.00000m  -61.7093n 
  888.00000m  -67.2907n 
  889.00000m  -73.1137n 
  890.00000m  -79.1784n 
  891.00000m  -85.4846n 
  892.00000m  -92.0325n 
  893.00000m  -98.8220n 
  894.00000m -105.8530n 
  895.00000m -113.1257n 
  896.00000m -120.6400n 
  897.00000m -128.3959n 
  898.00000m -136.3933n 
  899.00000m -144.6324n 
  900.00000m -153.1131n 
  901.00000m -161.8354n 
  902.00000m -170.7993n 
  903.00000m -180.0049n 
  904.00000m -189.4520n 
  905.00000m -199.1407n 
  906.00000m -209.0710n 
  907.00000m -219.2430n 
  908.00000m -229.6565n 
  909.00000m -240.3116n 
  910.00000m -251.2084n 
  911.00000m -262.3467n 
  912.00000m -273.7267n 
  913.00000m -285.3483n 
  914.00000m -297.2114n 
  915.00000m -309.3162n 
  916.00000m -321.6626n 
  917.00000m -334.2506n 
  918.00000m -347.0801n 
  919.00000m -360.1513n 
  920.00000m -373.4641n 
  921.00000m -387.0185n 
  922.00000m -400.8145n 
  923.00000m -414.8522n 
  924.00000m -429.1314n 
  925.00000m -443.6522n 
  926.00000m -458.4146n 
  927.00000m -473.4187n 
  928.00000m -488.6643n 
  929.00000m -504.1515n 
  930.00000m -519.8804n 
  931.00000m -535.8508n 
  932.00000m -552.0629n 
  933.00000m -568.5166n 
  934.00000m -585.2118n 
  935.00000m -602.1487n 
  936.00000m -619.3272n 
  937.00000m -636.7473n 
  938.00000m -654.4089n 
  939.00000m -672.3122n 
  940.00000m -690.4571n 
  941.00000m -708.8436n 
  942.00000m -727.4717n 
  943.00000m -746.3415n 
  944.00000m -765.4528n 
  945.00000m -784.8057n 
  946.00000m -804.4002n 
  947.00000m -824.2364n 
  948.00000m -844.3141n 
  949.00000m -864.6334n 
  950.00000m -885.1944n 
  951.00000m -905.9969n 
  952.00000m -927.0411n 
  953.00000m -948.3268n 
  954.00000m -969.8542n 
  955.00000m -991.6232n 
  956.00000m   -1.0136u 
  957.00000m   -1.0359u 
  958.00000m   -1.0584u 
  959.00000m   -1.0811u 
  960.00000m   -1.1041u 
  961.00000m   -1.1273u 
  962.00000m   -1.1508u 
  963.00000m   -1.1745u 
  964.00000m   -1.1984u 
  965.00000m   -1.2226u 
  966.00000m   -1.2470u 
  967.00000m   -1.2717u 
  968.00000m   -1.2966u 
  969.00000m   -1.3218u 
  970.00000m   -1.3472u 
  971.00000m   -1.3728u 
  972.00000m   -1.3987u 
  973.00000m   -1.4248u 
  974.00000m   -1.4511u 
  975.00000m   -1.4777u 
  976.00000m   -1.5046u 
  977.00000m   -1.5317u 
  978.00000m   -1.5590u 
  979.00000m   -1.5866u 
  980.00000m   -1.6144u 
  981.00000m   -1.6424u 
  982.00000m   -1.6707u 
  983.00000m   -1.6992u 
  984.00000m   -1.7280u 
  985.00000m   -1.7570u 
  986.00000m   -1.7863u 
  987.00000m   -1.8158u 
  988.00000m   -1.8455u 
  989.00000m   -1.8755u 
  990.00000m   -1.9057u 
  991.00000m   -1.9362u 
  992.00000m   -1.9669u 
  993.00000m   -1.9979u 
  994.00000m   -2.0291u 
  995.00000m   -2.0605u 
  996.00000m   -2.0922u 
  997.00000m   -2.1241u 
  998.00000m   -2.1562u 
  999.00000m   -2.1886u 
    1.00000    -2.2213u 
    1.00100    -2.2542u 
    1.00200    -2.2873u 
    1.00300    -2.3207u 
    1.00400    -2.3543u 
    1.00500    -2.3881u 
    1.00600    -2.4222u 
    1.00700    -2.4565u 
    1.00800    -2.4911u 
    1.00900    -2.5259u 
    1.01000    -2.5610u 
    1.01100    -2.5963u 
    1.01200    -2.6318u 
    1.01300    -2.6676u 
    1.01400    -2.7036u 
    1.01500    -2.7399u 
    1.01600    -2.7764u 
    1.01700    -2.8132u 
    1.01800    -2.8501u 
    1.01900    -2.8874u 
    1.02000    -2.9248u 
    1.02100    -2.9626u 
    1.02200    -3.0005u 
    1.02300    -3.0387u 
    1.02400    -3.0772u 
    1.02500    -3.1158u 
    1.02600    -3.1548u 
    1.02700    -3.1939u 
    1.02800    -3.2333u 
    1.02900    -3.2730u 
    1.03000    -3.3129u 
    1.03100    -3.3530u 
    1.03200    -3.3934u 
    1.03300    -3.4340u 
    1.03400    -3.4748u 
    1.03500    -3.5159u 
    1.03600    -3.5573u 
    1.03700    -3.5989u 
    1.03800    -3.6407u 
    1.03900    -3.6827u 
    1.04000    -3.7251u 
    1.04100    -3.7676u 
    1.04200    -3.8104u 
    1.04300    -3.8534u 
    1.04400    -3.8967u 
    1.04500    -3.9402u 
    1.04600    -3.9840u 
    1.04700    -4.0280u 
    1.04800    -4.0722u 
    1.04900    -4.1167u 
    1.05000    -4.1614u 
    1.05100    -4.2064u 
    1.05200    -4.2516u 
    1.05300    -4.2970u 
    1.05400    -4.3427u 
    1.05500    -4.3886u 
    1.05600    -4.4348u 
    1.05700    -4.4812u 
    1.05800    -4.5279u 
    1.05900    -4.5748u 
    1.06000    -4.6219u 
    1.06100    -4.6693u 
    1.06200    -4.7169u 
    1.06300    -4.7648u 
    1.06400    -4.8129u 
    1.06500    -4.8612u 
    1.06600    -4.9098u 
    1.06700    -4.9586u 
    1.06800    -5.0077u 
    1.06900    -5.0570u 
    1.07000    -5.1066u 
    1.07100    -5.1564u 
    1.07200    -5.2064u 
    1.07300    -5.2567u 
    1.07400    -5.3072u 
    1.07500    -5.3580u 
    1.07600    -5.4090u 
    1.07700    -5.4602u 
    1.07800    -5.5117u 
    1.07900    -5.5634u 
    1.08000    -5.6154u 
    1.08100    -5.6676u 
    1.08200    -5.7200u 
    1.08300    -5.7727u 
    1.08400    -5.8257u 
    1.08500    -5.8789u 
    1.08600    -5.9323u 
    1.08700    -5.9859u 
    1.08800    -6.0398u 
    1.08900    -6.0940u 
    1.09000    -6.1484u 
    1.09100    -6.2030u 
    1.09200    -6.2579u 
    1.09300    -6.3130u 
    1.09400    -6.3683u 
    1.09500    -6.4239u 
    1.09600    -6.4798u 
    1.09700    -6.5358u 
    1.09800    -6.5922u 
    1.09900    -6.6487u 
    1.10000    -6.7055u 
    1.10100    -6.7626u 
    1.10200    -6.8198u 
    1.10300    -6.8774u 
    1.10400    -6.9351u 
    1.10500    -6.9931u 
    1.10600    -7.0514u 
    1.10700    -7.1099u 
    1.10800    -7.1686u 
    1.10900    -7.2276u 
    1.11000    -7.2868u 
    1.11100    -7.3463u 
    1.11200    -7.4060u 
    1.11300    -7.4659u 
    1.11400    -7.5261u 
    1.11500    -7.5865u 
    1.11600    -7.6472u 
    1.11700    -7.7081u 
    1.11800    -7.7693u 
    1.11900    -7.8307u 
    1.12000    -7.8923u 
    1.12100    -7.9542u 
    1.12200    -8.0163u 
    1.12300    -8.0786u 
    1.12400    -8.1412u 
    1.12500    -8.2041u 
    1.12600    -8.2672u 
    1.12700    -8.3305u 
    1.12800    -8.3941u 
    1.12900    -8.4579u 
    1.13000    -8.5219u 
    1.13100    -8.5862u 
    1.13200    -8.6507u 
    1.13300    -8.7155u 
    1.13400    -8.7805u 
    1.13500    -8.8458u 
    1.13600    -8.9113u 
    1.13700    -8.9770u 
    1.13800    -9.0430u 
    1.13900    -9.1092u 
    1.14000    -9.1757u 
    1.14100    -9.2424u 
    1.14200    -9.3094u 
    1.14300    -9.3765u 
    1.14400    -9.4440u 
    1.14500    -9.5117u 
    1.14600    -9.5796u 
    1.14700    -9.6477u 
    1.14800    -9.7161u 
    1.14900    -9.7848u 
    1.15000    -9.8536u 
    1.15100    -9.9228u 
    1.15200    -9.9921u 
    1.15300   -10.0617u 
    1.15400   -10.1316u 
    1.15500   -10.2017u 
    1.15600   -10.2720u 
    1.15700   -10.3426u 
    1.15800   -10.4134u 
    1.15900   -10.4845u 
    1.16000   -10.5558u 
    1.16100   -10.6273u 
    1.16200   -10.6991u 
    1.16300   -10.7711u 
    1.16400   -10.8434u 
    1.16500   -10.9159u 
    1.16600   -10.9886u 
    1.16700   -11.0616u 
    1.16800   -11.1348u 
    1.16900   -11.2083u 
    1.17000   -11.2820u 
    1.17100   -11.3560u 
    1.17200   -11.4302u 
    1.17300   -11.5046u 
    1.17400   -11.5793u 
    1.17500   -11.6542u 
    1.17600   -11.7294u 
    1.17700   -11.8048u 
    1.17800   -11.8804u 
    1.17900   -11.9563u 
    1.18000   -12.0324u 
    1.18100   -12.1088u 
    1.18200   -12.1854u 
    1.18300   -12.2623u 
    1.18400   -12.3394u 
    1.18500   -12.4167u 
    1.18600   -12.4943u 
    1.18700   -12.5721u 
    1.18800   -12.6502u 
    1.18900   -12.7285u 
    1.19000   -12.8070u 
    1.19100   -12.8858u 
    1.19200   -12.9649u 
    1.19300   -13.0441u 
    1.19400   -13.1236u 
    1.19500   -13.2034u 
    1.19600   -13.2834u 
    1.19700   -13.3636u 
    1.19800   -13.4441u 
    1.19900   -13.5248u 
    1.20000   -13.6058u 
    1.20100   -13.6870u 
    1.20200   -13.7684u 
    1.20300   -13.8501u 
    1.20400   -13.9321u 
    1.20500   -14.0142u 
    1.20600   -14.0966u 
    1.20700   -14.1793u 
    1.20800   -14.2622u 
    1.20900   -14.3453u 
    1.21000   -14.4287u 
    1.21100   -14.5123u 
    1.21200   -14.5962u 
    1.21300   -14.6803u 
    1.21400   -14.7646u 
    1.21500   -14.8492u 
    1.21600   -14.9340u 
    1.21700   -15.0191u 
    1.21800   -15.1044u 
    1.21900   -15.1900u 
    1.22000   -15.2758u 
    1.22100   -15.3618u 
    1.22200   -15.4481u 
    1.22300   -15.5346u 
    1.22400   -15.6214u 
    1.22500   -15.7084u 
    1.22600   -15.7956u 
    1.22700   -15.8831u 
    1.22800   -15.9708u 
    1.22900   -16.0588u 
    1.23000   -16.1470u 
    1.23100   -16.2355u 
    1.23200   -16.3241u 
    1.23300   -16.4131u 
    1.23400   -16.5023u 
    1.23500   -16.5917u 
    1.23600   -16.6813u 
    1.23700   -16.7712u 
    1.23800   -16.8614u 
    1.23900   -16.9518u 
    1.24000   -17.0424u 
    1.24100   -17.1333u 
    1.24200   -17.2244u 
    1.24300   -17.3157u 
    1.24400   -17.4073u 
    1.24500   -17.4991u 
    1.24600   -17.5912u 
    1.24700   -17.6835u 
    1.24800   -17.7761u 
    1.24900   -17.8689u 
    1.25000   -17.9619u 
    1.25100   -18.0552u 
    1.25200   -18.1488u 
    1.25300   -18.2425u 
    1.25400   -18.3365u 
    1.25500   -18.4308u 
    1.25600   -18.5253u 
    1.25700   -18.6200u 
    1.25800   -18.7150u 
    1.25900   -18.8102u 
    1.26000   -18.9057u 
    1.26100   -19.0014u 
    1.26200   -19.0973u 
    1.26300   -19.1935u 
    1.26400   -19.2899u 
    1.26500   -19.3866u 
    1.26600   -19.4835u 
    1.26700   -19.5806u 
    1.26800   -19.6780u 
    1.26900   -19.7757u 
    1.27000   -19.8735u 
    1.27100   -19.9716u 
    1.27200   -20.0700u 
    1.27300   -20.1686u 
    1.27400   -20.2674u 
    1.27500   -20.3665u 
    1.27600   -20.4659u 
    1.27700   -20.5654u 
    1.27800   -20.6652u 
    1.27900   -20.7653u 
    1.28000   -20.8656u 
    1.28100   -20.9661u 
    1.28200   -21.0669u 
    1.28300   -21.1679u 
    1.28400   -21.2691u 
    1.28500   -21.3706u 
    1.28600   -21.4724u 
    1.28700   -21.5744u 
    1.28800   -21.6766u 
    1.28900   -21.7791u 
    1.29000   -21.8818u 
    1.29100   -21.9847u 
    1.29200   -22.0879u 
    1.29300   -22.1913u 
    1.29400   -22.2950u 
    1.29500   -22.3989u 
    1.29600   -22.5031u 
    1.29700   -22.6075u 
    1.29800   -22.7121u 
    1.29900   -22.8170u 
    1.30000   -22.9221u 
    1.30100   -23.0275u 
    1.30200   -23.1331u 
    1.30300   -23.2389u 
    1.30400   -23.3450u 
    1.30500   -23.4514u 
    1.30600   -23.5579u 
    1.30700   -23.6647u 
    1.30800   -23.7718u 
    1.30900   -23.8791u 
    1.31000   -23.9866u 
    1.31100   -24.0944u 
    1.31200   -24.2024u 
    1.31300   -24.3107u 
    1.31400   -24.4192u 
    1.31500   -24.5279u 
    1.31600   -24.6369u 
    1.31700   -24.7462u 
    1.31800   -24.8556u 
    1.31900   -24.9653u 
    1.32000   -25.0753u 
    1.32100   -25.1855u 
    1.32200   -25.2959u 
    1.32300   -25.4066u 
    1.32400   -25.5175u 
    1.32500   -25.6287u 
    1.32600   -25.7401u 
    1.32700   -25.8518u 
    1.32800   -25.9636u 
    1.32900   -26.0758u 
    1.33000   -26.1881u 
    1.33100   -26.3008u 
    1.33200   -26.4136u 
    1.33300   -26.5267u 
    1.33400   -26.6400u 
    1.33500   -26.7536u 
    1.33600   -26.8674u 
    1.33700   -26.9815u 
    1.33800   -27.0958u 
    1.33900   -27.2104u 
    1.34000   -27.3251u 
    1.34100   -27.4402u 
    1.34200   -27.5554u 
    1.34300   -27.6709u 
    1.34400   -27.7867u 
    1.34500   -27.9027u 
    1.34600   -28.0189u 
    1.34700   -28.1354u 
    1.34800   -28.2521u 
    1.34900   -28.3691u 
    1.35000   -28.4863u 
    1.35100   -28.6037u 
    1.35200   -28.7214u 
    1.35300   -28.8394u 
    1.35400   -28.9575u 
    1.35500   -29.0759u 
    1.35600   -29.1946u 
    1.35700   -29.3135u 
    1.35800   -29.4326u 
    1.35900   -29.5520u 
    1.36000   -29.6716u 
    1.36100   -29.7915u 
    1.36200   -29.9116u 
    1.36300   -30.0319u 
    1.36400   -30.1525u 
    1.36500   -30.2733u 
    1.36600   -30.3944u 
    1.36700   -30.5157u 
    1.36800   -30.6373u 
    1.36900   -30.7591u 
    1.37000   -30.8811u 
    1.37100   -31.0034u 
    1.37200   -31.1259u 
    1.37300   -31.2486u 
    1.37400   -31.3716u 
    1.37500   -31.4949u 
    1.37600   -31.6184u 
    1.37700   -31.7421u 
    1.37800   -31.8661u 
    1.37900   -31.9903u 
    1.38000   -32.1147u 
    1.38100   -32.2394u 
    1.38200   -32.3644u 
    1.38300   -32.4895u 
    1.38400   -32.6149u 
    1.38500   -32.7406u 
    1.38600   -32.8665u 
    1.38700   -32.9927u 
    1.38800   -33.1190u 
    1.38900   -33.2457u 
    1.39000   -33.3725u 
    1.39100   -33.4996u 
    1.39200   -33.6270u 
    1.39300   -33.7546u 
    1.39400   -33.8824u 
    1.39500   -34.0105u 
    1.39600   -34.1388u 
    1.39700   -34.2674u 
    1.39800   -34.3962u 
    1.39900   -34.5252u 
    1.40000   -34.6545u 
    1.40100   -34.7840u 
    1.40200   -34.9138u 
    1.40300   -35.0438u 
    1.40400   -35.1740u 
    1.40500   -35.3045u 
    1.40600   -35.4353u 
    1.40700   -35.5662u 
    1.40800   -35.6975u 
    1.40900   -35.8289u 
    1.41000   -35.9606u 
    1.41100   -36.0925u 
    1.41200   -36.2247u 
    1.41300   -36.3572u 
    1.41400   -36.4898u 
    1.41500   -36.6227u 
    1.41600   -36.7559u 
    1.41700   -36.8893u 
    1.41800   -37.0229u 
    1.41900   -37.1568u 
    1.42000   -37.2909u 
    1.42100   -37.4252u 
    1.42200   -37.5598u 
    1.42300   -37.6947u 
    1.42400   -37.8298u 
    1.42500   -37.9651u 
    1.42600   -38.1007u 
    1.42700   -38.2365u 
    1.42800   -38.3725u 
    1.42900   -38.5088u 
    1.43000   -38.6453u 
    1.43100   -38.7821u 
    1.43200   -38.9191u 
    1.43300   -39.0564u 
    1.43400   -39.1939u 
    1.43500   -39.3316u 
    1.43600   -39.4696u 
    1.43700   -39.6078u 
    1.43800   -39.7463u 
    1.43900   -39.8850u 
    1.44000   -40.0239u 
    1.44100   -40.1631u 
    1.44200   -40.3026u 
    1.44300   -40.4422u 
    1.44400   -40.5821u 
    1.44500   -40.7223u 
    1.44600   -40.8627u 
    1.44700   -41.0033u 
    1.44800   -41.1442u 
    1.44900   -41.2853u 
    1.45000   -41.4267u 
    1.45100   -41.5683u 
    1.45200   -41.7101u 
    1.45300   -41.8522u 
    1.45400   -41.9946u 
    1.45500   -42.1371u 
    1.45600   -42.2799u 
    1.45700   -42.4230u 
    1.45800   -42.5663u 
    1.45900   -42.7098u 
    1.46000   -42.8536u 
    1.46100   -42.9976u 
    1.46200   -43.1419u 
    1.46300   -43.2864u 
    1.46400   -43.4312u 
    1.46500   -43.5761u 
    1.46600   -43.7214u 
    1.46700   -43.8668u 
    1.46800   -44.0126u 
    1.46900   -44.1585u 
    1.47000   -44.3047u 
    1.47100   -44.4511u 
    1.47200   -44.5978u 
    1.47300   -44.7447u 
    1.47400   -44.8919u 
    1.47500   -45.0393u 
    1.47600   -45.1869u 
    1.47700   -45.3348u 
    1.47800   -45.4830u 
    1.47900   -45.6313u 
    1.48000   -45.7799u 
    1.48100   -45.9288u 
    1.48200   -46.0779u 
    1.48300   -46.2272u 
    1.48400   -46.3768u 
    1.48500   -46.5266u 
    1.48600   -46.6767u 
    1.48700   -46.8270u 
    1.48800   -46.9775u 
    1.48900   -47.1283u 
    1.49000   -47.2793u 
    1.49100   -47.4306u 
    1.49200   -47.5821u 
    1.49300   -47.7339u 
    1.49400   -47.8859u 
    1.49500   -48.0381u 
    1.49600   -48.1906u 
    1.49700   -48.3433u 
    1.49800   -48.4963u 
    1.49900   -48.6495u 
    1.50000   -48.8029u 
    1.50100   -48.9566u 
    1.50200   -49.1105u 
    1.50300   -49.2647u 
    1.50400   -49.4191u 
    1.50500   -49.5738u 
    1.50600   -49.7286u 
    1.50700   -49.8838u 
    1.50800   -50.0392u 
    1.50900   -50.1948u 
    1.51000   -50.3506u 
    1.51100   -50.5067u 
    1.51200   -50.6631u 
    1.51300   -50.8197u 
    1.51400   -50.9765u 
    1.51500   -51.1336u 
    1.51600   -51.2909u 
    1.51700   -51.4484u 
    1.51800   -51.6062u 
    1.51900   -51.7642u 
    1.52000   -51.9225u 
    1.52100   -52.0810u 
    1.52200   -52.2398u 
    1.52300   -52.3988u 
    1.52400   -52.5580u 
    1.52500   -52.7175u 
    1.52600   -52.8773u 
    1.52700   -53.0372u 
    1.52800   -53.1974u 
    1.52900   -53.3579u 
    1.53000   -53.5186u 
    1.53100   -53.6795u 
    1.53200   -53.8407u 
    1.53300   -54.0021u 
    1.53400   -54.1638u 
    1.53500   -54.3257u 
    1.53600   -54.4878u 
    1.53700   -54.6502u 
    1.53800   -54.8128u 
    1.53900   -54.9757u 
    1.54000   -55.1388u 
    1.54100   -55.3021u 
    1.54200   -55.4657u 
    1.54300   -55.6296u 
    1.54400   -55.7936u 
    1.54500   -55.9579u 
    1.54600   -56.1225u 
    1.54700   -56.2873u 
    1.54800   -56.4523u 
    1.54900   -56.6176u 
    1.55000   -56.7831u 
    1.55100   -56.9489u 
    1.55200   -57.1149u 
    1.55300   -57.2812u 
    1.55400   -57.4477u 
    1.55500   -57.6144u 
    1.55600   -57.7814u 
    1.55700   -57.9486u 
    1.55800   -58.1160u 
    1.55900   -58.2837u 
    1.56000   -58.4517u 
    1.56100   -58.6199u 
    1.56200   -58.7883u 
    1.56300   -58.9569u 
    1.56400   -59.1258u 
    1.56500   -59.2950u 
    1.56600   -59.4644u 
    1.56700   -59.6340u 
    1.56800   -59.8039u 
    1.56900   -59.9740u 
    1.57000   -60.1444u 
    1.57100   -60.3150u 
    1.57200   -60.4858u 
    1.57300   -60.6569u 
    1.57400   -60.8282u 
    1.57500   -60.9998u 
    1.57600   -61.1716u 
    1.57700   -61.3436u 
    1.57800   -61.5159u 
    1.57900   -61.6884u 
    1.58000   -61.8612u 
    1.58100   -62.0342u 
    1.58200   -62.2075u 
    1.58300   -62.3810u 
    1.58400   -62.5547u 
    1.58500   -62.7287u 
    1.58600   -62.9029u 
    1.58700   -63.0774u 
    1.58800   -63.2521u 
    1.58900   -63.4270u 
    1.59000   -63.6022u 
    1.59100   -63.7776u 
    1.59200   -63.9533u 
    1.59300   -64.1292u 
    1.59400   -64.3054u 
    1.59500   -64.4818u 
    1.59600   -64.6584u 
    1.59700   -64.8353u 
    1.59800   -65.0124u 
    1.59900   -65.1898u 
    1.60000   -65.3674u 
    1.60100   -65.5452u 
    1.60200   -65.7233u 
    1.60300   -65.9017u 
    1.60400   -66.0802u 
    1.60500   -66.2590u 
    1.60600   -66.4381u 
    1.60700   -66.6174u 
    1.60800   -66.7969u 
    1.60900   -66.9767u 
    1.61000   -67.1567u 
    1.61100   -67.3370u 
    1.61200   -67.5175u 
    1.61300   -67.6982u 
    1.61400   -67.8792u 
    1.61500   -68.0604u 
    1.61600   -68.2419u 
    1.61700   -68.4236u 
    1.61800   -68.6056u 
    1.61900   -68.7878u 
    1.62000   -68.9702u 
    1.62100   -69.1529u 
    1.62200   -69.3358u 
    1.62300   -69.5190u 
    1.62400   -69.7024u 
    1.62500   -69.8860u 
    1.62600   -70.0699u 
    1.62700   -70.2540u 
    1.62800   -70.4384u 
    1.62900   -70.6230u 
    1.63000   -70.8079u 
    1.63100   -70.9930u 
    1.63200   -71.1783u 
    1.63300   -71.3639u 
    1.63400   -71.5497u 
    1.63500   -71.7357u 
    1.63600   -71.9220u 
    1.63700   -72.1086u 
    1.63800   -72.2954u 
    1.63900   -72.4824u 
    1.64000   -72.6697u 
    1.64100   -72.8572u 
    1.64200   -73.0449u 
    1.64300   -73.2329u 
    1.64400   -73.4212u 
    1.64500   -73.6096u 
    1.64600   -73.7984u 
    1.64700   -73.9873u 
    1.64800   -74.1765u 
    1.64900   -74.3660u 
    1.65000   -74.5556u 
    1.65100   -74.7456u 
    1.65200   -74.9357u 
    1.65300   -75.1261u 
    1.65400   -75.3168u 
    1.65500   -75.5077u 
    1.65600   -75.6988u 
    1.65700   -75.8902u 
    1.65800   -76.0818u 
    1.65900   -76.2737u 
    1.66000   -76.4658u 
    1.66100   -76.6581u 
    1.66200   -76.8507u 
    1.66300   -77.0435u 
    1.66400   -77.2366u 
    1.66500   -77.4299u 
    1.66600   -77.6235u 
    1.66700   -77.8172u 
    1.66800   -78.0113u 
    1.66900   -78.2056u 
    1.67000   -78.4001u 
    1.67100   -78.5948u 
    1.67200   -78.7898u 
    1.67300   -78.9851u 
    1.67400   -79.1806u 
    1.67500   -79.3763u 
    1.67600   -79.5722u 
    1.67700   -79.7685u 
    1.67800   -79.9649u 
    1.67900   -80.1616u 
    1.68000   -80.3585u 
    1.68100   -80.5557u 
    1.68200   -80.7531u 
    1.68300   -80.9508u 
    1.68400   -81.1487u 
    1.68500   -81.3468u 
    1.68600   -81.5452u 
    1.68700   -81.7438u 
    1.68800   -81.9427u 
    1.68900   -82.1418u 
    1.69000   -82.3411u 
    1.69100   -82.5407u 
    1.69200   -82.7406u 
    1.69300   -82.9406u 
    1.69400   -83.1409u 
    1.69500   -83.3415u 
    1.69600   -83.5423u 
    1.69700   -83.7433u 
    1.69800   -83.9446u 
    1.69900   -84.1461u 
    1.70000   -84.3479u 
    1.70100   -84.5499u 
    1.70200   -84.7522u 
    1.70300   -84.9547u 
    1.70400   -85.1574u 
    1.70500   -85.3604u 
    1.70600   -85.5636u 
    1.70700   -85.7670u 
    1.70800   -85.9707u 
    1.70900   -86.1747u 
    1.71000   -86.3788u 
    1.71100   -86.5833u 
    1.71200   -86.7879u 
    1.71300   -86.9928u 
    1.71400   -87.1980u 
    1.71500   -87.4034u 
    1.71600   -87.6090u 
    1.71700   -87.8149u 
    1.71800   -88.0210u 
    1.71900   -88.2273u 
    1.72000   -88.4339u 
    1.72100   -88.6408u 
    1.72200   -88.8479u 
    1.72300   -89.0552u 
    1.72400   -89.2627u 
    1.72500   -89.4706u 
    1.72600   -89.6786u 
    1.72700   -89.8869u 
    1.72800   -90.0954u 
    1.72900   -90.3042u 
    1.73000   -90.5132u 
    1.73100   -90.7225u 
    1.73200   -90.9320u 
    1.73300   -91.1417u 
    1.73400   -91.3517u 
    1.73500   -91.5619u 
    1.73600   -91.7724u 
    1.73700   -91.9831u 
    1.73800   -92.1940u 
    1.73900   -92.4052u 
    1.74000   -92.6166u 
    1.74100   -92.8283u 
    1.74200   -93.0402u 
    1.74300   -93.2524u 
    1.74400   -93.4647u 
    1.74500   -93.6774u 
    1.74600   -93.8903u 
    1.74700   -94.1034u 
    1.74800   -94.3167u 
    1.74900   -94.5303u 
    1.75000   -94.7442u 
    1.75100   -94.9583u 
    1.75200   -95.1726u 
    1.75300   -95.3872u 
    1.75400   -95.6020u 
    1.75500   -95.8170u 
    1.75600   -96.0323u 
    1.75700   -96.2479u 
    1.75800   -96.4637u 
    1.75900   -96.6797u 
    1.76000   -96.8959u 
    1.76100   -97.1124u 
    1.76200   -97.3292u 
    1.76300   -97.5462u 
    1.76400   -97.7634u 
    1.76500   -97.9809u 
    1.76600   -98.1986u 
    1.76700   -98.4165u 
    1.76800   -98.6347u 
    1.76900   -98.8532u 
    1.77000   -99.0718u 
    1.77100   -99.2907u 
    1.77200   -99.5099u 
    1.77300   -99.7293u 
    1.77400   -99.9490u 
    1.77500  -100.1688u 
    1.77600  -100.3890u 
    1.77700  -100.6093u 
    1.77800  -100.8299u 
    1.77900  -101.0508u 
    1.78000  -101.2719u 
    1.78100  -101.4932u 
    1.78200  -101.7148u 
    1.78300  -101.9366u 
    1.78400  -102.1587u 
    1.78500  -102.3810u 
    1.78600  -102.6035u 
    1.78700  -102.8263u 
    1.78800  -103.0493u 
    1.78900  -103.2726u 
    1.79000  -103.4961u 
    1.79100  -103.7199u 
    1.79200  -103.9439u 
    1.79300  -104.1681u 
    1.79400  -104.3926u 
    1.79500  -104.6173u 
    1.79600  -104.8422u 
    1.79700  -105.0674u 
    1.79800  -105.2929u 
    1.79900  -105.5186u 
    1.80000  -105.7445u 
    1.80100  -105.9707u 
    1.80200  -106.1971u 
    1.80300  -106.4237u 
    1.80400  -106.6506u 
    1.80500  -106.8777u 
    1.80600  -107.1051u 
    1.80700  -107.3327u 
    1.80800  -107.5606u 
    1.80900  -107.7887u 
    1.81000  -108.0170u 
    1.81100  -108.2456u 
    1.81200  -108.4744u 
    1.81300  -108.7035u 
    1.81400  -108.9328u 
    1.81500  -109.1624u 
    1.81600  -109.3921u 
    1.81700  -109.6222u 
    1.81800  -109.8525u 
    1.81900  -110.0830u 
    1.82000  -110.3137u 
    1.82100  -110.5447u 
    1.82200  -110.7760u 
    1.82300  -111.0075u 
    1.82400  -111.2392u 
    1.82500  -111.4711u 
    1.82600  -111.7033u 
    1.82700  -111.9358u 
    1.82800  -112.1685u 
    1.82900  -112.4014u 
    1.83000  -112.6346u 
    1.83100  -112.8680u 
    1.83200  -113.1017u 
    1.83300  -113.3356u 
    1.83400  -113.5697u 
    1.83500  -113.8041u 
    1.83600  -114.0387u 
    1.83700  -114.2736u 
    1.83800  -114.5087u 
    1.83900  -114.7440u 
    1.84000  -114.9796u 
    1.84100  -115.2154u 
    1.84200  -115.4515u 
    1.84300  -115.6878u 
    1.84400  -115.9244u 
    1.84500  -116.1612u 
    1.84600  -116.3982u 
    1.84700  -116.6355u 
    1.84800  -116.8730u 
    1.84900  -117.1108u 
    1.85000  -117.3488u 
    1.85100  -117.5870u 
    1.85200  -117.8255u 
    1.85300  -118.0643u 
    1.85400  -118.3032u 
    1.85500  -118.5424u 
    1.85600  -118.7819u 
    1.85700  -119.0216u 
    1.85800  -119.2615u 
    1.85900  -119.5017u 
    1.86000  -119.7421u 
    1.86100  -119.9828u 
    1.86200  -120.2237u 
    1.86300  -120.4649u 
    1.86400  -120.7062u 
    1.86500  -120.9478u 
    1.86600  -121.1894u 
    1.86700  -121.4310u 
    1.86800  -121.6726u 
    1.86900  -121.9142u 
    1.87000  -122.1558u 
    1.87100  -122.3975u 
    1.87200  -122.6391u 
    1.87300  -122.8807u 
    1.87400  -123.1223u 
    1.87500  -123.3639u 
    1.87600  -123.6055u 
    1.87700  -123.8471u 
    1.87800  -124.0887u 
    1.87900  -124.3303u 
    1.88000  -124.5719u 
    1.88100  -124.8135u 
    1.88200  -125.0551u 
    1.88300  -125.2967u 
    1.88400  -125.5383u 
    1.88500  -125.7799u 
    1.88600  -126.0215u 
    1.88700  -126.2631u 
    1.88800  -126.5047u 
    1.88900  -126.7463u 
    1.89000  -126.9879u 
    1.89100  -127.2296u 
    1.89200  -127.4712u 
    1.89300  -127.7128u 
    1.89400  -127.9544u 
    1.89500  -128.1960u 
    1.89600  -128.4376u 
    1.89700  -128.6792u 
    1.89800  -128.9208u 
    1.89900  -129.1624u 
    1.90000  -129.4040u 
    1.90100  -129.6456u 
    1.90200  -129.8872u 
    1.90300  -130.1288u 
    1.90400  -130.3704u 
    1.90500  -130.6120u 
    1.90600  -130.8536u 
    1.90700  -131.0952u 
    1.90800  -131.3368u 
    1.90900  -131.5784u 
    1.91000  -131.8200u 
    1.91100  -132.0617u 
    1.91200  -132.3033u 
    1.91300  -132.5449u 
    1.91400  -132.7865u 
    1.91500  -133.0281u 
    1.91600  -133.2697u 
    1.91700  -133.5113u 
    1.91800  -133.7529u 
    1.91900  -133.9945u 
    1.92000  -134.2361u 
    1.92100  -134.4777u 
    1.92200  -134.7193u 
    1.92300  -134.9609u 
    1.92400  -135.2025u 
    1.92500  -135.4441u 
    1.92600  -135.6857u 
    1.92700  -135.9273u 
    1.92800  -136.1689u 
    1.92900  -136.4105u 
    1.93000  -136.6521u 
    1.93100  -136.8938u 
    1.93200  -137.1354u 
    1.93300  -137.3770u 
    1.93400  -137.6186u 
    1.93500  -137.8602u 
    1.93600  -138.1018u 
    1.93700  -138.3434u 
    1.93800  -138.5850u 
    1.93900  -138.8266u 
    1.94000  -139.0682u 
    1.94100  -139.3098u 
    1.94200  -139.5514u 
    1.94300  -139.7930u 
    1.94400  -140.0346u 
    1.94500  -140.2762u 
    1.94600  -140.5178u 
    1.94700  -140.7594u 
    1.94800  -141.0010u 
    1.94900  -141.2426u 
    1.95000  -141.4842u 
    1.95100  -141.7259u 
    1.95200  -141.9675u 
    1.95300  -142.2091u 
    1.95400  -142.4507u 
    1.95500  -142.6923u 
    1.95600  -142.9339u 
    1.95700  -143.1755u 
    1.95800  -143.4171u 
    1.95900  -143.6587u 
    1.96000  -143.9003u 
    1.96100  -144.1419u 
    1.96200  -144.3835u 
    1.96300  -144.6251u 
    1.96400  -144.8667u 
    1.96500  -145.1083u 
    1.96600  -145.3499u 
    1.96700  -145.5915u 
    1.96800  -145.8331u 
    1.96900  -146.0747u 
    1.97000  -146.3163u 
    1.97100  -146.5580u 
    1.97200  -146.7996u 
    1.97300  -147.0412u 
    1.97400  -147.2828u 
    1.97500  -147.5244u 
    1.97600  -147.7660u 
    1.97700  -148.0076u 
    1.97800  -148.2492u 
    1.97900  -148.4908u 
    1.98000  -148.7324u 
    1.98100  -148.9740u 
    1.98200  -149.2156u 
    1.98300  -149.4572u 
    1.98400  -149.6988u 
    1.98500  -149.9404u 
    1.98600  -150.1820u 
    1.98700  -150.4236u 
    1.98800  -150.6652u 
    1.98900  -150.9068u 
    1.99000  -151.1484u 
    1.99100  -151.3901u 
    1.99200  -151.6317u 
    1.99300  -151.8733u 
    1.99400  -152.1149u 
    1.99500  -152.3565u 
    1.99600  -152.5981u 
    1.99700  -152.8397u 
    1.99800  -153.0813u 
    1.99900  -153.3229u 
    2.00000  -153.5645u 
y

          ***** job concluded
 ******  
 *mos

 ****** job statistics summary tnom=  25.000 temp=  25.000 ******
  
 ******  Machine Information  ******
 CPU:
 model name	: Intel(R) Xeon(R) CPU           E5620  @ 2.40GHz
 cpu MHz	: 1596.000
  
 OS:
 Linux version 2.6.32-754.6.3.el6.x86_64 (mockbuild@x86-01.bsys.centos.org) (gcc version 4.4.7 20120313 (Red Hat 4.4.7-23) (GCC) ) #1 SMP Tue Oct 9 17:27:49 UTC 2018


  ******  HSPICE Threads Information  ******

  Command Line Threads Count :     1
  Available CPU Count        :    16
  Actual Threads Count       :     1


  ******  Circuit Statistics  ******
  # nodes       =       3 # elements   =       3
  # resistors   =       0 # capacitors =       0 # inductors   =       0
  # mutual_inds =       0 # vccs       =       0 # vcvs        =       0
  # cccs        =       0 # ccvs       =       0 # volt_srcs   =       2
  # curr_srcs   =       0 # diodes     =       0 # bjts        =       0
  # jfets       =       0 # mosfets    =       0 # U elements  =       0
  # T elements  =       0 # W elements =       0 # B elements  =       0
  # S elements  =       0 # P elements =       0 # va device   =       1
  # vector_srcs =       0 # N elements =       0


  ******  Runtime Statistics (seconds)  ******

  analysis           time    # points   tot. iter  conv.iter
  op point           0.00           1           0
  dc sweep           0.13        2001        4003
  readin             2.19
  errchk             0.00
  setup              0.08
  output             0.00


           peak memory used        301.59 megabytes
           total cpu time            2.49 seconds
           total elapsed time        2.57 seconds
           job started at     18:17:02 11/07/2019
           job ended   at     18:17:04 11/07/2019
           job total runtime         2.57 seconds


 lic: Release hspice token(s) 
 lic: total license checkout elapse time:        0.03(s)
