 ****** HSPICE -- P-2019.06-SP1-1 linux64 (Sep 27 2019) ******                  
  Copyright (c) 1986 - 2019 by Synopsys, Inc. All Rights Reserved.              
  This software and the associated documentation are proprietary
  to Synopsys, Inc. This software may only be used in accordance
  with the terms and conditions of a written license agreement with
  Synopsys, Inc. All other use, reproduction, or distribution of
  this software is strictly prohibited.
  Input File: q2.sp                                                             
  Command line options: /usr/local/Software/Hspice/hspice/P-2019.06-SP1-1/hspice/linux64/hspice -i q2.sp -o q2
  Start time: Sat Nov  2 02:19:16 2019
 lic:  
 lic: FLEXlm: SDK_12.3 
 lic: USER:   EE735_6              HOSTNAME: mcl16 
 lic: HOSTID: "001517a3883c"       PID:      28787 
 lic: Using FLEXlm license file: 
 lic: 27020@mcl16 
 lic: Checkout 1 hspice 
 lic: License/Maintenance for hspice will expire on 02-nov-2019/2019.06 
 lic: 1(in_use)/10(total) FLOATING license(s) on SERVER 27020@mcl16 
 lic:   
 **info** *pvaI* current limit stacksize=10485760, set new limit stacksize=62914560

 **info** *pvaI* Module (simple_mos): 4 unexpanded port, 0 init, 3 behav, 2 contrib, 49/1 expr(s)

 **info** *pvaI*        Has DIS(ST), 0/0 afCount, 0 MT, dlg, IO(0/0/1/0)

 **info** *pvaI*        0 gmdIsThreadSafe (ST)

 **info** *pvaI*        0 const-G and 0 const-C, Has switchBranch, 22 bypassOpt, 0 bus2scalar, 0 vwb

 **info** *pvaI*        set_va_exp = 80 [80.0, 704.0] set by default

 **warning** *pvaW*        variable 'P_EPSSI' declared but not used in RHS, deleted (q2.va:19)

 **warning** *pvaW*                   To relax this rule, use 'setenv PVA_KEEP_VARS 1' to keep variables for probing.

 **warning** *pvaW*        variable 'P_EPS' declared but not used in RHS, deleted (q2.va:20)

 **warning** *pvaW*        variable 'Vt_phif' declared but not used in RHS, deleted (q2.va:21)

 **warning** *pvaW*        variable 'PHI' declared but not used in RHS, deleted (q2.va:22)

 **warning** *pvaW*        variable 'GAMMA' declared but not used in RHS, deleted (q2.va:22)

 **warning** *pvaW*        variable 'COX' declared but not used in RHS, deleted (q2.va:22)

 **warning** *pvaW*        variable 'PHI_F' declared but not used in RHS, deleted (q2.va:22)

 **warning** *pvaW*        variable 'Ni' declared but not used in RHS, deleted (q2.va:23)

 **warning** *pvaW*        variable 'q' declared but not used in RHS, deleted (q2.va:24)

 **info** *pvaI*        port 'b' at 4 declared, but not used

 **info** *pvaI*        generated 0 flow node(s) during compilation.

 **info** *pvaI* #### Total 431 line-size(s), 49/1 expr(s), 2 contr(s), 0 init(s), 3 behav(s), 4 port(s)

 Loading pVA library q2.pvadir/pvaRTL_linux64.so...
1****** HSPICE -- P-2019.06-SP1-1 linux64 (Sep 27 2019) ******                  
 ******  
 *mos

 ****** circuit name directory
 circuit number to circuit name directory
   number circuitname                     definition         multiplier
        0 main circuit
        1 x1.                             simple_mos(va)     1.00 
 **info** *pvaI* Creating VA module (simple_mos) for instance X1 with gmd reduction

 **info** *pvaI*        termCount=4 diwSize=8 probeSize=14 Qsize=0 Isize=1

 End of GMD creation on Sat Nov  2 02:19:19 2019	GTM/In-use: 1.8750/0.4531 MB


  
      
 *****************************************************************
 ******  option summary
 ******
 runlvl  = 3         bypass  = 2.0000    
  Opening plot unit= 15
 file=q2.pa0

 End of pVA setup    on Sat Nov  2 02:19:19 2019	GTM/In-use: 1.8750/0.4870 MB


 Begin of pVA simulation on Sat Nov  2 02:19:19 2019	GTM/In-use: 1.8750/0.4870 MB


 ******
 *mos

 ****** dc transfer curves tnom=  25.000 temp=  25.000 ******
x

 volt         current   
             vd         
    0.          0.      
    1.00000m -144.8422n 
    2.00000m -289.4428n 
    3.00000m -433.8018n 
    4.00000m -577.9192n 
    5.00000m -721.7949n 
    6.00000m -865.4291n 
    7.00000m   -1.0088u 
    8.00000m   -1.1520u 
    9.00000m   -1.2949u 
   10.00000m   -1.4375u 
   11.00000m   -1.5800u 
   12.00000m   -1.7222u 
   13.00000m   -1.8641u 
   14.00000m   -2.0058u 
   15.00000m   -2.1473u 
   16.00000m   -2.2885u 
   17.00000m   -2.4295u 
   18.00000m   -2.5702u 
   19.00000m   -2.7107u 
   20.00000m   -2.8509u 
   21.00000m   -2.9909u 
   22.00000m   -3.1307u 
   23.00000m   -3.2702u 
   24.00000m   -3.4095u 
   25.00000m   -3.5486u 
   26.00000m   -3.6874u 
   27.00000m   -3.8259u 
   28.00000m   -3.9643u 
   29.00000m   -4.1023u 
   30.00000m   -4.2402u 
   31.00000m   -4.3778u 
   32.00000m   -4.5151u 
   33.00000m   -4.6522u 
   34.00000m   -4.7891u 
   35.00000m   -4.9257u 
   36.00000m   -5.0621u 
   37.00000m   -5.1983u 
   38.00000m   -5.3342u 
   39.00000m   -5.4698u 
   40.00000m   -5.6052u 
   41.00000m   -5.7404u 
   42.00000m   -5.8754u 
   43.00000m   -6.0100u 
   44.00000m   -6.1445u 
   45.00000m   -6.2787u 
   46.00000m   -6.4127u 
   47.00000m   -6.5464u 
   48.00000m   -6.6799u 
   49.00000m   -6.8131u 
   50.00000m   -6.9461u 
   51.00000m   -7.0789u 
   52.00000m   -7.2114u 
   53.00000m   -7.3437u 
   54.00000m   -7.4757u 
   55.00000m   -7.6075u 
   56.00000m   -7.7391u 
   57.00000m   -7.8704u 
   58.00000m   -8.0015u 
   59.00000m   -8.1323u 
   60.00000m   -8.2629u 
   61.00000m   -8.3932u 
   62.00000m   -8.5233u 
   63.00000m   -8.6532u 
   64.00000m   -8.7828u 
   65.00000m   -8.9122u 
   66.00000m   -9.0413u 
   67.00000m   -9.1702u 
   68.00000m   -9.2989u 
   69.00000m   -9.4273u 
   70.00000m   -9.5555u 
   71.00000m   -9.6834u 
   72.00000m   -9.8111u 
   73.00000m   -9.9385u 
   74.00000m  -10.0657u 
   75.00000m  -10.1927u 
   76.00000m  -10.3194u 
   77.00000m  -10.4459u 
   78.00000m  -10.5722u 
   79.00000m  -10.6981u 
   80.00000m  -10.8239u 
   81.00000m  -10.9494u 
   82.00000m  -11.0747u 
   83.00000m  -11.1997u 
   84.00000m  -11.3245u 
   85.00000m  -11.4491u 
   86.00000m  -11.5734u 
   87.00000m  -11.6974u 
   88.00000m  -11.8212u 
   89.00000m  -11.9448u 
   90.00000m  -12.0682u 
   91.00000m  -12.1913u 
   92.00000m  -12.3141u 
   93.00000m  -12.4367u 
   94.00000m  -12.5591u 
   95.00000m  -12.6812u 
   96.00000m  -12.8031u 
   97.00000m  -12.9248u 
   98.00000m  -13.0462u 
   99.00000m  -13.1674u 
  100.00000m  -13.2883u 
  101.00000m  -13.4090u 
  102.00000m  -13.5294u 
  103.00000m  -13.6496u 
  104.00000m  -13.7696u 
  105.00000m  -13.8893u 
  106.00000m  -14.0087u 
  107.00000m  -14.1280u 
  108.00000m  -14.2470u 
  109.00000m  -14.3657u 
  110.00000m  -14.4842u 
  111.00000m  -14.6025u 
  112.00000m  -14.7205u 
  113.00000m  -14.8383u 
  114.00000m  -14.9558u 
  115.00000m  -15.0731u 
  116.00000m  -15.1902u 
  117.00000m  -15.3070u 
  118.00000m  -15.4236u 
  119.00000m  -15.5399u 
  120.00000m  -15.6560u 
  121.00000m  -15.7719u 
  122.00000m  -15.8875u 
  123.00000m  -16.0028u 
  124.00000m  -16.1180u 
  125.00000m  -16.2328u 
  126.00000m  -16.3475u 
  127.00000m  -16.4619u 
  128.00000m  -16.5760u 
  129.00000m  -16.6900u 
  130.00000m  -16.8036u 
  131.00000m  -16.9171u 
  132.00000m  -17.0303u 
  133.00000m  -17.1432u 
  134.00000m  -17.2559u 
  135.00000m  -17.3684u 
  136.00000m  -17.4806u 
  137.00000m  -17.5926u 
  138.00000m  -17.7043u 
  139.00000m  -17.8158u 
  140.00000m  -17.9271u 
  141.00000m  -18.0381u 
  142.00000m  -18.1489u 
  143.00000m  -18.2594u 
  144.00000m  -18.3697u 
  145.00000m  -18.4798u 
  146.00000m  -18.5896u 
  147.00000m  -18.6991u 
  148.00000m  -18.8085u 
  149.00000m  -18.9176u 
  150.00000m  -19.0264u 
  151.00000m  -19.1350u 
  152.00000m  -19.2434u 
  153.00000m  -19.3515u 
  154.00000m  -19.4593u 
  155.00000m  -19.5670u 
  156.00000m  -19.6744u 
  157.00000m  -19.7815u 
  158.00000m  -19.8884u 
  159.00000m  -19.9951u 
  160.00000m  -20.1015u 
  161.00000m  -20.2077u 
  162.00000m  -20.3137u 
  163.00000m  -20.4194u 
  164.00000m  -20.5248u 
  165.00000m  -20.6300u 
  166.00000m  -20.7350u 
  167.00000m  -20.8398u 
  168.00000m  -20.9443u 
  169.00000m  -21.0485u 
  170.00000m  -21.1525u 
  171.00000m  -21.2563u 
  172.00000m  -21.3598u 
  173.00000m  -21.4631u 
  174.00000m  -21.5661u 
  175.00000m  -21.6689u 
  176.00000m  -21.7715u 
  177.00000m  -21.8738u 
  178.00000m  -21.9759u 
  179.00000m  -22.0777u 
  180.00000m  -22.1793u 
  181.00000m  -22.2807u 
  182.00000m  -22.3818u 
  183.00000m  -22.4827u 
  184.00000m  -22.5833u 
  185.00000m  -22.6837u 
  186.00000m  -22.7838u 
  187.00000m  -22.8837u 
  188.00000m  -22.9834u 
  189.00000m  -23.0828u 
  190.00000m  -23.1820u 
  191.00000m  -23.2809u 
  192.00000m  -23.3796u 
  193.00000m  -23.4781u 
  194.00000m  -23.5763u 
  195.00000m  -23.6743u 
  196.00000m  -23.7720u 
  197.00000m  -23.8695u 
  198.00000m  -23.9667u 
  199.00000m  -24.0637u 
  200.00000m  -24.1605u 
  201.00000m  -24.2570u 
  202.00000m  -24.3533u 
  203.00000m  -24.4493u 
  204.00000m  -24.5451u 
  205.00000m  -24.6407u 
  206.00000m  -24.7360u 
  207.00000m  -24.8311u 
  208.00000m  -24.9259u 
  209.00000m  -25.0205u 
  210.00000m  -25.1148u 
  211.00000m  -25.2089u 
  212.00000m  -25.3028u 
  213.00000m  -25.3964u 
  214.00000m  -25.4898u 
  215.00000m  -25.5829u 
  216.00000m  -25.6758u 
  217.00000m  -25.7685u 
  218.00000m  -25.8609u 
  219.00000m  -25.9531u 
  220.00000m  -26.0450u 
  221.00000m  -26.1367u 
  222.00000m  -26.2282u 
  223.00000m  -26.3194u 
  224.00000m  -26.4103u 
  225.00000m  -26.5010u 
  226.00000m  -26.5915u 
  227.00000m  -26.6818u 
  228.00000m  -26.7718u 
  229.00000m  -26.8615u 
  230.00000m  -26.9510u 
  231.00000m  -27.0403u 
  232.00000m  -27.1293u 
  233.00000m  -27.2181u 
  234.00000m  -27.3067u 
  235.00000m  -27.3950u 
  236.00000m  -27.4831u 
  237.00000m  -27.5709u 
  238.00000m  -27.6585u 
  239.00000m  -27.7458u 
  240.00000m  -27.8329u 
  241.00000m  -27.9198u 
  242.00000m  -28.0064u 
  243.00000m  -28.0927u 
  244.00000m  -28.1789u 
  245.00000m  -28.2648u 
  246.00000m  -28.3504u 
  247.00000m  -28.4358u 
  248.00000m  -28.5210u 
  249.00000m  -28.6059u 
  250.00000m  -28.6906u 
  251.00000m  -28.7750u 
  252.00000m  -28.8592u 
  253.00000m  -28.9432u 
  254.00000m  -29.0269u 
  255.00000m  -29.1104u 
  256.00000m  -29.1936u 
  257.00000m  -29.2766u 
  258.00000m  -29.3594u 
  259.00000m  -29.4419u 
  260.00000m  -29.5241u 
  261.00000m  -29.6062u 
  262.00000m  -29.6879u 
  263.00000m  -29.7695u 
  264.00000m  -29.8508u 
  265.00000m  -29.9318u 
  266.00000m  -30.0127u 
  267.00000m  -30.0932u 
  268.00000m  -30.1736u 
  269.00000m  -30.2537u 
  270.00000m  -30.3335u 
  271.00000m  -30.4131u 
  272.00000m  -30.4925u 
  273.00000m  -30.5716u 
  274.00000m  -30.6505u 
  275.00000m  -30.7291u 
  276.00000m  -30.8075u 
  277.00000m  -30.8857u 
  278.00000m  -30.9636u 
  279.00000m  -31.0413u 
  280.00000m  -31.1187u 
  281.00000m  -31.1959u 
  282.00000m  -31.2729u 
  283.00000m  -31.3496u 
  284.00000m  -31.4260u 
  285.00000m  -31.5023u 
  286.00000m  -31.5783u 
  287.00000m  -31.6540u 
  288.00000m  -31.7295u 
  289.00000m  -31.8048u 
  290.00000m  -31.8798u 
  291.00000m  -31.9546u 
  292.00000m  -32.0291u 
  293.00000m  -32.1034u 
  294.00000m  -32.1774u 
  295.00000m  -32.2512u 
  296.00000m  -32.3248u 
  297.00000m  -32.3981u 
  298.00000m  -32.4712u 
  299.00000m  -32.5441u 
  300.00000m  -32.6167u 
  301.00000m  -32.6890u 
  302.00000m  -32.7612u 
  303.00000m  -32.8330u 
  304.00000m  -32.9047u 
  305.00000m  -32.9761u 
  306.00000m  -33.0472u 
  307.00000m  -33.1181u 
  308.00000m  -33.1888u 
  309.00000m  -33.2592u 
  310.00000m  -33.3294u 
  311.00000m  -33.3994u 
  312.00000m  -33.4691u 
  313.00000m  -33.5385u 
  314.00000m  -33.6077u 
  315.00000m  -33.6767u 
  316.00000m  -33.7455u 
  317.00000m  -33.8139u 
  318.00000m  -33.8822u 
  319.00000m  -33.9502u 
  320.00000m  -34.0180u 
  321.00000m  -34.0855u 
  322.00000m  -34.1528u 
  323.00000m  -34.2198u 
  324.00000m  -34.2866u 
  325.00000m  -34.3532u 
  326.00000m  -34.4195u 
  327.00000m  -34.4856u 
  328.00000m  -34.5514u 
  329.00000m  -34.6170u 
  330.00000m  -34.6824u 
  331.00000m  -34.7475u 
  332.00000m  -34.8124u 
  333.00000m  -34.8770u 
  334.00000m  -34.9414u 
  335.00000m  -35.0055u 
  336.00000m  -35.0694u 
  337.00000m  -35.1331u 
  338.00000m  -35.1965u 
  339.00000m  -35.2597u 
  340.00000m  -35.3227u 
  341.00000m  -35.3853u 
  342.00000m  -35.4478u 
  343.00000m  -35.5100u 
  344.00000m  -35.5720u 
  345.00000m  -35.6337u 
  346.00000m  -35.6952u 
  347.00000m  -35.7565u 
  348.00000m  -35.8175u 
  349.00000m  -35.8782u 
  350.00000m  -35.9387u 
  351.00000m  -35.9990u 
  352.00000m  -36.0591u 
  353.00000m  -36.1189u 
  354.00000m  -36.1784u 
  355.00000m  -36.2377u 
  356.00000m  -36.2968u 
  357.00000m  -36.3556u 
  358.00000m  -36.4142u 
  359.00000m  -36.4726u 
  360.00000m  -36.5307u 
  361.00000m  -36.5885u 
  362.00000m  -36.6462u 
  363.00000m  -36.7035u 
  364.00000m  -36.7607u 
  365.00000m  -36.8176u 
  366.00000m  -36.8742u 
  367.00000m  -36.9307u 
  368.00000m  -36.9868u 
  369.00000m  -37.0428u 
  370.00000m  -37.0984u 
  371.00000m  -37.1539u 
  372.00000m  -37.2091u 
  373.00000m  -37.2641u 
  374.00000m  -37.3188u 
  375.00000m  -37.3733u 
  376.00000m  -37.4275u 
  377.00000m  -37.4815u 
  378.00000m  -37.5353u 
  379.00000m  -37.5888u 
  380.00000m  -37.6421u 
  381.00000m  -37.6951u 
  382.00000m  -37.7479u 
  383.00000m  -37.8004u 
  384.00000m  -37.8527u 
  385.00000m  -37.9048u 
  386.00000m  -37.9566u 
  387.00000m  -38.0082u 
  388.00000m  -38.0596u 
  389.00000m  -38.1107u 
  390.00000m  -38.1615u 
  391.00000m  -38.2121u 
  392.00000m  -38.2625u 
  393.00000m  -38.3126u 
  394.00000m  -38.3625u 
  395.00000m  -38.4122u 
  396.00000m  -38.4616u 
  397.00000m  -38.5107u 
  398.00000m  -38.5597u 
  399.00000m  -38.6084u 
  400.00000m  -38.6568u 
  401.00000m  -38.7050u 
  402.00000m  -38.7530u 
  403.00000m  -38.8007u 
  404.00000m  -38.8482u 
  405.00000m  -38.8954u 
  406.00000m  -38.9424u 
  407.00000m  -38.9891u 
  408.00000m  -39.0356u 
  409.00000m  -39.0819u 
  410.00000m  -39.1279u 
  411.00000m  -39.1737u 
  412.00000m  -39.2193u 
  413.00000m  -39.2646u 
  414.00000m  -39.3096u 
  415.00000m  -39.3544u 
  416.00000m  -39.3990u 
  417.00000m  -39.4433u 
  418.00000m  -39.4874u 
  419.00000m  -39.5313u 
  420.00000m  -39.5749u 
  421.00000m  -39.6183u 
  422.00000m  -39.6614u 
  423.00000m  -39.7043u 
  424.00000m  -39.7469u 
  425.00000m  -39.7893u 
  426.00000m  -39.8315u 
  427.00000m  -39.8734u 
  428.00000m  -39.9151u 
  429.00000m  -39.9565u 
  430.00000m  -39.9977u 
  431.00000m  -40.0387u 
  432.00000m  -40.0794u 
  433.00000m  -40.1198u 
  434.00000m  -40.1601u 
  435.00000m  -40.2001u 
  436.00000m  -40.2398u 
  437.00000m  -40.2793u 
  438.00000m  -40.3186u 
  439.00000m  -40.3576u 
  440.00000m  -40.3964u 
  441.00000m  -40.4349u 
  442.00000m  -40.4732u 
  443.00000m  -40.5112u 
  444.00000m  -40.5491u 
  445.00000m  -40.5866u 
  446.00000m  -40.6239u 
  447.00000m  -40.6610u 
  448.00000m  -40.6979u 
  449.00000m  -40.7345u 
  450.00000m  -40.7708u 
  451.00000m  -40.8070u 
  452.00000m  -40.8428u 
  453.00000m  -40.8785u 
  454.00000m  -40.9139u 
  455.00000m  -40.9490u 
  456.00000m  -40.9839u 
  457.00000m  -41.0186u 
  458.00000m  -41.0530u 
  459.00000m  -41.0872u 
  460.00000m  -41.1212u 
  461.00000m  -41.1549u 
  462.00000m  -41.1883u 
  463.00000m  -41.2216u 
  464.00000m  -41.2545u 
  465.00000m  -41.2873u 
  466.00000m  -41.3198u 
  467.00000m  -41.3520u 
  468.00000m  -41.3840u 
  469.00000m  -41.4158u 
  470.00000m  -41.4473u 
  471.00000m  -41.4786u 
  472.00000m  -41.5097u 
  473.00000m  -41.5405u 
  474.00000m  -41.5710u 
  475.00000m  -41.6014u 
  476.00000m  -41.6314u 
  477.00000m  -41.6613u 
  478.00000m  -41.6909u 
  479.00000m  -41.7202u 
  480.00000m  -41.7493u 
  481.00000m  -41.7782u 
  482.00000m  -41.8068u 
  483.00000m  -41.8352u 
  484.00000m  -41.8634u 
  485.00000m  -41.8913u 
  486.00000m  -41.9190u 
  487.00000m  -41.9464u 
  488.00000m  -41.9736u 
  489.00000m  -42.0005u 
  490.00000m  -42.0272u 
  491.00000m  -42.0536u 
  492.00000m  -42.0799u 
  493.00000m  -42.1058u 
  494.00000m  -42.1316u 
  495.00000m  -42.1571u 
  496.00000m  -42.1823u 
  497.00000m  -42.2073u 
  498.00000m  -42.2321u 
  499.00000m  -42.2566u 
  500.00000m  -42.2809u 
  501.00000m  -42.3049u 
  502.00000m  -42.3287u 
  503.00000m  -42.3523u 
  504.00000m  -42.3756u 
  505.00000m  -42.3987u 
  506.00000m  -42.4215u 
  507.00000m  -42.4441u 
  508.00000m  -42.4664u 
  509.00000m  -42.4885u 
  510.00000m  -42.5104u 
  511.00000m  -42.5320u 
  512.00000m  -42.5534u 
  513.00000m  -42.5745u 
  514.00000m  -42.5954u 
  515.00000m  -42.6161u 
  516.00000m  -42.6365u 
  517.00000m  -42.6567u 
  518.00000m  -42.6766u 
  519.00000m  -42.6963u 
  520.00000m  -42.7158u 
  521.00000m  -42.7350u 
  522.00000m  -42.7539u 
  523.00000m  -42.7727u 
  524.00000m  -42.7911u 
  525.00000m  -42.8094u 
  526.00000m  -42.8274u 
  527.00000m  -42.8451u 
  528.00000m  -42.8627u 
  529.00000m  -42.8799u 
  530.00000m  -42.8970u 
  531.00000m  -42.9138u 
  532.00000m  -42.9303u 
  533.00000m  -42.9466u 
  534.00000m  -42.9627u 
  535.00000m  -42.9785u 
  536.00000m  -42.9941u 
  537.00000m  -43.0094u 
  538.00000m  -43.0245u 
  539.00000m  -43.0394u 
  540.00000m  -43.0540u 
  541.00000m  -43.0684u 
  542.00000m  -43.0825u 
  543.00000m  -43.0964u 
  544.00000m  -43.1101u 
  545.00000m  -43.1235u 
  546.00000m  -43.1366u 
  547.00000m  -43.1496u 
  548.00000m  -43.1623u 
  549.00000m  -43.1747u 
  550.00000m  -43.1869u 
  551.00000m  -43.1989u 
  552.00000m  -43.2106u 
  553.00000m  -43.2220u 
  554.00000m  -43.2333u 
  555.00000m  -43.2443u 
  556.00000m  -43.2550u 
  557.00000m  -43.2655u 
  558.00000m  -43.2758u 
  559.00000m  -43.2858u 
  560.00000m  -43.2956u 
  561.00000m  -43.3052u 
  562.00000m  -43.3145u 
  563.00000m  -43.3235u 
  564.00000m  -43.3323u 
  565.00000m  -43.3409u 
  566.00000m  -43.3493u 
  567.00000m  -43.3573u 
  568.00000m  -43.3652u 
  569.00000m  -43.3728u 
  570.00000m  -43.3802u 
  571.00000m  -43.3873u 
  572.00000m  -43.3942u 
  573.00000m  -43.4008u 
  574.00000m  -43.4072u 
  575.00000m  -43.4134u 
  576.00000m  -43.4193u 
  577.00000m  -43.4250u 
  578.00000m  -43.4304u 
  579.00000m  -43.4356u 
  580.00000m  -43.4406u 
  581.00000m  -43.4453u 
  582.00000m  -43.4498u 
  583.00000m  -43.4540u 
  584.00000m  -43.4580u 
  585.00000m  -43.4617u 
  586.00000m  -43.4652u 
  587.00000m  -43.4685u 
  588.00000m  -43.4715u 
  589.00000m  -43.4743u 
  590.00000m  -43.4768u 
  591.00000m  -43.4791u 
  592.00000m  -43.4812u 
  593.00000m  -43.4830u 
  594.00000m  -43.4846u 
  595.00000m  -43.4859u 
  596.00000m  -43.4870u 
  597.00000m  -43.4878u 
  598.00000m  -43.4884u 
  599.00000m  -43.4888u 
  600.00000m  -43.4889u 
  601.00000m  -43.4909u 
  602.00000m  -43.4928u 
  603.00000m  -43.4948u 
  604.00000m  -43.4967u 
  605.00000m  -43.4987u 
  606.00000m  -43.5006u 
  607.00000m  -43.5026u 
  608.00000m  -43.5046u 
  609.00000m  -43.5065u 
  610.00000m  -43.5085u 
  611.00000m  -43.5104u 
  612.00000m  -43.5124u 
  613.00000m  -43.5143u 
  614.00000m  -43.5163u 
  615.00000m  -43.5183u 
  616.00000m  -43.5202u 
  617.00000m  -43.5222u 
  618.00000m  -43.5241u 
  619.00000m  -43.5261u 
  620.00000m  -43.5280u 
  621.00000m  -43.5300u 
  622.00000m  -43.5320u 
  623.00000m  -43.5339u 
  624.00000m  -43.5359u 
  625.00000m  -43.5378u 
  626.00000m  -43.5398u 
  627.00000m  -43.5417u 
  628.00000m  -43.5437u 
  629.00000m  -43.5457u 
  630.00000m  -43.5476u 
  631.00000m  -43.5496u 
  632.00000m  -43.5515u 
  633.00000m  -43.5535u 
  634.00000m  -43.5554u 
  635.00000m  -43.5574u 
  636.00000m  -43.5594u 
  637.00000m  -43.5613u 
  638.00000m  -43.5633u 
  639.00000m  -43.5652u 
  640.00000m  -43.5672u 
  641.00000m  -43.5691u 
  642.00000m  -43.5711u 
  643.00000m  -43.5731u 
  644.00000m  -43.5750u 
  645.00000m  -43.5770u 
  646.00000m  -43.5789u 
  647.00000m  -43.5809u 
  648.00000m  -43.5828u 
  649.00000m  -43.5848u 
  650.00000m  -43.5868u 
  651.00000m  -43.5887u 
  652.00000m  -43.5907u 
  653.00000m  -43.5926u 
  654.00000m  -43.5946u 
  655.00000m  -43.5965u 
  656.00000m  -43.5985u 
  657.00000m  -43.6004u 
  658.00000m  -43.6024u 
  659.00000m  -43.6044u 
  660.00000m  -43.6063u 
  661.00000m  -43.6083u 
  662.00000m  -43.6102u 
  663.00000m  -43.6122u 
  664.00000m  -43.6141u 
  665.00000m  -43.6161u 
  666.00000m  -43.6181u 
  667.00000m  -43.6200u 
  668.00000m  -43.6220u 
  669.00000m  -43.6239u 
  670.00000m  -43.6259u 
  671.00000m  -43.6278u 
  672.00000m  -43.6298u 
  673.00000m  -43.6318u 
  674.00000m  -43.6337u 
  675.00000m  -43.6357u 
  676.00000m  -43.6376u 
  677.00000m  -43.6396u 
  678.00000m  -43.6415u 
  679.00000m  -43.6435u 
  680.00000m  -43.6455u 
  681.00000m  -43.6474u 
  682.00000m  -43.6494u 
  683.00000m  -43.6513u 
  684.00000m  -43.6533u 
  685.00000m  -43.6552u 
  686.00000m  -43.6572u 
  687.00000m  -43.6592u 
  688.00000m  -43.6611u 
  689.00000m  -43.6631u 
  690.00000m  -43.6650u 
  691.00000m  -43.6670u 
  692.00000m  -43.6689u 
  693.00000m  -43.6709u 
  694.00000m  -43.6729u 
  695.00000m  -43.6748u 
  696.00000m  -43.6768u 
  697.00000m  -43.6787u 
  698.00000m  -43.6807u 
  699.00000m  -43.6826u 
  700.00000m  -43.6846u 
  701.00000m  -43.6866u 
  702.00000m  -43.6885u 
  703.00000m  -43.6905u 
  704.00000m  -43.6924u 
  705.00000m  -43.6944u 
  706.00000m  -43.6963u 
  707.00000m  -43.6983u 
  708.00000m  -43.7003u 
  709.00000m  -43.7022u 
  710.00000m  -43.7042u 
  711.00000m  -43.7061u 
  712.00000m  -43.7081u 
  713.00000m  -43.7100u 
  714.00000m  -43.7120u 
  715.00000m  -43.7140u 
  716.00000m  -43.7159u 
  717.00000m  -43.7179u 
  718.00000m  -43.7198u 
  719.00000m  -43.7218u 
  720.00000m  -43.7237u 
  721.00000m  -43.7257u 
  722.00000m  -43.7277u 
  723.00000m  -43.7296u 
  724.00000m  -43.7316u 
  725.00000m  -43.7335u 
  726.00000m  -43.7355u 
  727.00000m  -43.7374u 
  728.00000m  -43.7394u 
  729.00000m  -43.7414u 
  730.00000m  -43.7433u 
  731.00000m  -43.7453u 
  732.00000m  -43.7472u 
  733.00000m  -43.7492u 
  734.00000m  -43.7511u 
  735.00000m  -43.7531u 
  736.00000m  -43.7551u 
  737.00000m  -43.7570u 
  738.00000m  -43.7590u 
  739.00000m  -43.7609u 
  740.00000m  -43.7629u 
  741.00000m  -43.7648u 
  742.00000m  -43.7668u 
  743.00000m  -43.7688u 
  744.00000m  -43.7707u 
  745.00000m  -43.7727u 
  746.00000m  -43.7746u 
  747.00000m  -43.7766u 
  748.00000m  -43.7785u 
  749.00000m  -43.7805u 
  750.00000m  -43.7825u 
  751.00000m  -43.7844u 
  752.00000m  -43.7864u 
  753.00000m  -43.7883u 
  754.00000m  -43.7903u 
  755.00000m  -43.7922u 
  756.00000m  -43.7942u 
  757.00000m  -43.7961u 
  758.00000m  -43.7981u 
  759.00000m  -43.8001u 
  760.00000m  -43.8020u 
  761.00000m  -43.8040u 
  762.00000m  -43.8059u 
  763.00000m  -43.8079u 
  764.00000m  -43.8098u 
  765.00000m  -43.8118u 
  766.00000m  -43.8138u 
  767.00000m  -43.8157u 
  768.00000m  -43.8177u 
  769.00000m  -43.8196u 
  770.00000m  -43.8216u 
  771.00000m  -43.8235u 
  772.00000m  -43.8255u 
  773.00000m  -43.8275u 
  774.00000m  -43.8294u 
  775.00000m  -43.8314u 
  776.00000m  -43.8333u 
  777.00000m  -43.8353u 
  778.00000m  -43.8372u 
  779.00000m  -43.8392u 
  780.00000m  -43.8412u 
  781.00000m  -43.8431u 
  782.00000m  -43.8451u 
  783.00000m  -43.8470u 
  784.00000m  -43.8490u 
  785.00000m  -43.8509u 
  786.00000m  -43.8529u 
  787.00000m  -43.8549u 
  788.00000m  -43.8568u 
  789.00000m  -43.8588u 
  790.00000m  -43.8607u 
  791.00000m  -43.8627u 
  792.00000m  -43.8646u 
  793.00000m  -43.8666u 
  794.00000m  -43.8686u 
  795.00000m  -43.8705u 
  796.00000m  -43.8725u 
  797.00000m  -43.8744u 
  798.00000m  -43.8764u 
  799.00000m  -43.8783u 
  800.00000m  -43.8803u 
  801.00000m  -43.8823u 
  802.00000m  -43.8842u 
  803.00000m  -43.8862u 
  804.00000m  -43.8881u 
  805.00000m  -43.8901u 
  806.00000m  -43.8920u 
  807.00000m  -43.8940u 
  808.00000m  -43.8960u 
  809.00000m  -43.8979u 
  810.00000m  -43.8999u 
  811.00000m  -43.9018u 
  812.00000m  -43.9038u 
  813.00000m  -43.9057u 
  814.00000m  -43.9077u 
  815.00000m  -43.9097u 
  816.00000m  -43.9116u 
  817.00000m  -43.9136u 
  818.00000m  -43.9155u 
  819.00000m  -43.9175u 
  820.00000m  -43.9194u 
  821.00000m  -43.9214u 
  822.00000m  -43.9234u 
  823.00000m  -43.9253u 
  824.00000m  -43.9273u 
  825.00000m  -43.9292u 
  826.00000m  -43.9312u 
  827.00000m  -43.9331u 
  828.00000m  -43.9351u 
  829.00000m  -43.9371u 
  830.00000m  -43.9390u 
  831.00000m  -43.9410u 
  832.00000m  -43.9429u 
  833.00000m  -43.9449u 
  834.00000m  -43.9468u 
  835.00000m  -43.9488u 
  836.00000m  -43.9508u 
  837.00000m  -43.9527u 
  838.00000m  -43.9547u 
  839.00000m  -43.9566u 
  840.00000m  -43.9586u 
  841.00000m  -43.9605u 
  842.00000m  -43.9625u 
  843.00000m  -43.9645u 
  844.00000m  -43.9664u 
  845.00000m  -43.9684u 
  846.00000m  -43.9703u 
  847.00000m  -43.9723u 
  848.00000m  -43.9742u 
  849.00000m  -43.9762u 
  850.00000m  -43.9782u 
  851.00000m  -43.9801u 
  852.00000m  -43.9821u 
  853.00000m  -43.9840u 
  854.00000m  -43.9860u 
  855.00000m  -43.9879u 
  856.00000m  -43.9899u 
  857.00000m  -43.9918u 
  858.00000m  -43.9938u 
  859.00000m  -43.9958u 
  860.00000m  -43.9977u 
  861.00000m  -43.9997u 
  862.00000m  -44.0016u 
  863.00000m  -44.0036u 
  864.00000m  -44.0055u 
  865.00000m  -44.0075u 
  866.00000m  -44.0095u 
  867.00000m  -44.0114u 
  868.00000m  -44.0134u 
  869.00000m  -44.0153u 
  870.00000m  -44.0173u 
  871.00000m  -44.0192u 
  872.00000m  -44.0212u 
  873.00000m  -44.0232u 
  874.00000m  -44.0251u 
  875.00000m  -44.0271u 
  876.00000m  -44.0290u 
  877.00000m  -44.0310u 
  878.00000m  -44.0329u 
  879.00000m  -44.0349u 
  880.00000m  -44.0369u 
  881.00000m  -44.0388u 
  882.00000m  -44.0408u 
  883.00000m  -44.0427u 
  884.00000m  -44.0447u 
  885.00000m  -44.0466u 
  886.00000m  -44.0486u 
  887.00000m  -44.0506u 
  888.00000m  -44.0525u 
  889.00000m  -44.0545u 
  890.00000m  -44.0564u 
  891.00000m  -44.0584u 
  892.00000m  -44.0603u 
  893.00000m  -44.0623u 
  894.00000m  -44.0643u 
  895.00000m  -44.0662u 
  896.00000m  -44.0682u 
  897.00000m  -44.0701u 
  898.00000m  -44.0721u 
  899.00000m  -44.0740u 
  900.00000m  -44.0760u 
  901.00000m  -44.0780u 
  902.00000m  -44.0799u 
  903.00000m  -44.0819u 
  904.00000m  -44.0838u 
  905.00000m  -44.0858u 
  906.00000m  -44.0877u 
  907.00000m  -44.0897u 
  908.00000m  -44.0917u 
  909.00000m  -44.0936u 
  910.00000m  -44.0956u 
  911.00000m  -44.0975u 
  912.00000m  -44.0995u 
  913.00000m  -44.1014u 
  914.00000m  -44.1034u 
  915.00000m  -44.1054u 
  916.00000m  -44.1073u 
  917.00000m  -44.1093u 
  918.00000m  -44.1112u 
  919.00000m  -44.1132u 
  920.00000m  -44.1151u 
  921.00000m  -44.1171u 
  922.00000m  -44.1191u 
  923.00000m  -44.1210u 
  924.00000m  -44.1230u 
  925.00000m  -44.1249u 
  926.00000m  -44.1269u 
  927.00000m  -44.1288u 
  928.00000m  -44.1308u 
  929.00000m  -44.1328u 
  930.00000m  -44.1347u 
  931.00000m  -44.1367u 
  932.00000m  -44.1386u 
  933.00000m  -44.1406u 
  934.00000m  -44.1425u 
  935.00000m  -44.1445u 
  936.00000m  -44.1465u 
  937.00000m  -44.1484u 
  938.00000m  -44.1504u 
  939.00000m  -44.1523u 
  940.00000m  -44.1543u 
  941.00000m  -44.1562u 
  942.00000m  -44.1582u 
  943.00000m  -44.1602u 
  944.00000m  -44.1621u 
  945.00000m  -44.1641u 
  946.00000m  -44.1660u 
  947.00000m  -44.1680u 
  948.00000m  -44.1699u 
  949.00000m  -44.1719u 
  950.00000m  -44.1739u 
  951.00000m  -44.1758u 
  952.00000m  -44.1778u 
  953.00000m  -44.1797u 
  954.00000m  -44.1817u 
  955.00000m  -44.1836u 
  956.00000m  -44.1856u 
  957.00000m  -44.1875u 
  958.00000m  -44.1895u 
  959.00000m  -44.1915u 
  960.00000m  -44.1934u 
  961.00000m  -44.1954u 
  962.00000m  -44.1973u 
  963.00000m  -44.1993u 
  964.00000m  -44.2012u 
  965.00000m  -44.2032u 
  966.00000m  -44.2052u 
  967.00000m  -44.2071u 
  968.00000m  -44.2091u 
  969.00000m  -44.2110u 
  970.00000m  -44.2130u 
  971.00000m  -44.2149u 
  972.00000m  -44.2169u 
  973.00000m  -44.2189u 
  974.00000m  -44.2208u 
  975.00000m  -44.2228u 
  976.00000m  -44.2247u 
  977.00000m  -44.2267u 
  978.00000m  -44.2286u 
  979.00000m  -44.2306u 
  980.00000m  -44.2326u 
  981.00000m  -44.2345u 
  982.00000m  -44.2365u 
  983.00000m  -44.2384u 
  984.00000m  -44.2404u 
  985.00000m  -44.2423u 
  986.00000m  -44.2443u 
  987.00000m  -44.2463u 
  988.00000m  -44.2482u 
  989.00000m  -44.2502u 
  990.00000m  -44.2521u 
  991.00000m  -44.2541u 
  992.00000m  -44.2560u 
  993.00000m  -44.2580u 
  994.00000m  -44.2600u 
  995.00000m  -44.2619u 
  996.00000m  -44.2639u 
  997.00000m  -44.2658u 
  998.00000m  -44.2678u 
  999.00000m  -44.2697u 
    1.00000   -44.2717u 
    1.00100   -44.2737u 
    1.00200   -44.2756u 
    1.00300   -44.2776u 
    1.00400   -44.2795u 
    1.00500   -44.2815u 
    1.00600   -44.2834u 
    1.00700   -44.2854u 
    1.00800   -44.2874u 
    1.00900   -44.2893u 
    1.01000   -44.2913u 
    1.01100   -44.2932u 
    1.01200   -44.2952u 
    1.01300   -44.2971u 
    1.01400   -44.2991u 
    1.01500   -44.3011u 
    1.01600   -44.3030u 
    1.01700   -44.3050u 
    1.01800   -44.3069u 
    1.01900   -44.3089u 
    1.02000   -44.3108u 
    1.02100   -44.3128u 
    1.02200   -44.3148u 
    1.02300   -44.3167u 
    1.02400   -44.3187u 
    1.02500   -44.3206u 
    1.02600   -44.3226u 
    1.02700   -44.3245u 
    1.02800   -44.3265u 
    1.02900   -44.3285u 
    1.03000   -44.3304u 
    1.03100   -44.3324u 
    1.03200   -44.3343u 
    1.03300   -44.3363u 
    1.03400   -44.3382u 
    1.03500   -44.3402u 
    1.03600   -44.3422u 
    1.03700   -44.3441u 
    1.03800   -44.3461u 
    1.03900   -44.3480u 
    1.04000   -44.3500u 
    1.04100   -44.3519u 
    1.04200   -44.3539u 
    1.04300   -44.3559u 
    1.04400   -44.3578u 
    1.04500   -44.3598u 
    1.04600   -44.3617u 
    1.04700   -44.3637u 
    1.04800   -44.3656u 
    1.04900   -44.3676u 
    1.05000   -44.3696u 
    1.05100   -44.3715u 
    1.05200   -44.3735u 
    1.05300   -44.3754u 
    1.05400   -44.3774u 
    1.05500   -44.3793u 
    1.05600   -44.3813u 
    1.05700   -44.3832u 
    1.05800   -44.3852u 
    1.05900   -44.3872u 
    1.06000   -44.3891u 
    1.06100   -44.3911u 
    1.06200   -44.3930u 
    1.06300   -44.3950u 
    1.06400   -44.3969u 
    1.06500   -44.3989u 
    1.06600   -44.4009u 
    1.06700   -44.4028u 
    1.06800   -44.4048u 
    1.06900   -44.4067u 
    1.07000   -44.4087u 
    1.07100   -44.4106u 
    1.07200   -44.4126u 
    1.07300   -44.4146u 
    1.07400   -44.4165u 
    1.07500   -44.4185u 
    1.07600   -44.4204u 
    1.07700   -44.4224u 
    1.07800   -44.4243u 
    1.07900   -44.4263u 
    1.08000   -44.4283u 
    1.08100   -44.4302u 
    1.08200   -44.4322u 
    1.08300   -44.4341u 
    1.08400   -44.4361u 
    1.08500   -44.4380u 
    1.08600   -44.4400u 
    1.08700   -44.4420u 
    1.08800   -44.4439u 
    1.08900   -44.4459u 
    1.09000   -44.4478u 
    1.09100   -44.4498u 
    1.09200   -44.4517u 
    1.09300   -44.4537u 
    1.09400   -44.4557u 
    1.09500   -44.4576u 
    1.09600   -44.4596u 
    1.09700   -44.4615u 
    1.09800   -44.4635u 
    1.09900   -44.4654u 
    1.10000   -44.4674u 
    1.10100   -44.4694u 
    1.10200   -44.4713u 
    1.10300   -44.4733u 
    1.10400   -44.4752u 
    1.10500   -44.4772u 
    1.10600   -44.4791u 
    1.10700   -44.4811u 
    1.10800   -44.4831u 
    1.10900   -44.4850u 
    1.11000   -44.4870u 
    1.11100   -44.4889u 
    1.11200   -44.4909u 
    1.11300   -44.4928u 
    1.11400   -44.4948u 
    1.11500   -44.4968u 
    1.11600   -44.4987u 
    1.11700   -44.5007u 
    1.11800   -44.5026u 
    1.11900   -44.5046u 
    1.12000   -44.5065u 
    1.12100   -44.5085u 
    1.12200   -44.5105u 
    1.12300   -44.5124u 
    1.12400   -44.5144u 
    1.12500   -44.5163u 
    1.12600   -44.5183u 
    1.12700   -44.5202u 
    1.12800   -44.5222u 
    1.12900   -44.5242u 
    1.13000   -44.5261u 
    1.13100   -44.5281u 
    1.13200   -44.5300u 
    1.13300   -44.5320u 
    1.13400   -44.5339u 
    1.13500   -44.5359u 
    1.13600   -44.5379u 
    1.13700   -44.5398u 
    1.13800   -44.5418u 
    1.13900   -44.5437u 
    1.14000   -44.5457u 
    1.14100   -44.5476u 
    1.14200   -44.5496u 
    1.14300   -44.5516u 
    1.14400   -44.5535u 
    1.14500   -44.5555u 
    1.14600   -44.5574u 
    1.14700   -44.5594u 
    1.14800   -44.5613u 
    1.14900   -44.5633u 
    1.15000   -44.5653u 
    1.15100   -44.5672u 
    1.15200   -44.5692u 
    1.15300   -44.5711u 
    1.15400   -44.5731u 
    1.15500   -44.5750u 
    1.15600   -44.5770u 
    1.15700   -44.5789u 
    1.15800   -44.5809u 
    1.15900   -44.5829u 
    1.16000   -44.5848u 
    1.16100   -44.5868u 
    1.16200   -44.5887u 
    1.16300   -44.5907u 
    1.16400   -44.5926u 
    1.16500   -44.5946u 
    1.16600   -44.5966u 
    1.16700   -44.5985u 
    1.16800   -44.6005u 
    1.16900   -44.6024u 
    1.17000   -44.6044u 
    1.17100   -44.6063u 
    1.17200   -44.6083u 
    1.17300   -44.6103u 
    1.17400   -44.6122u 
    1.17500   -44.6142u 
    1.17600   -44.6161u 
    1.17700   -44.6181u 
    1.17800   -44.6200u 
    1.17900   -44.6220u 
    1.18000   -44.6240u 
    1.18100   -44.6259u 
    1.18200   -44.6279u 
    1.18300   -44.6298u 
    1.18400   -44.6318u 
    1.18500   -44.6337u 
    1.18600   -44.6357u 
    1.18700   -44.6377u 
    1.18800   -44.6396u 
    1.18900   -44.6416u 
    1.19000   -44.6435u 
    1.19100   -44.6455u 
    1.19200   -44.6474u 
    1.19300   -44.6494u 
    1.19400   -44.6514u 
    1.19500   -44.6533u 
    1.19600   -44.6553u 
    1.19700   -44.6572u 
    1.19800   -44.6592u 
    1.19900   -44.6611u 
    1.20000   -44.6631u 
    1.20100   -44.6651u 
    1.20200   -44.6670u 
    1.20300   -44.6690u 
    1.20400   -44.6709u 
    1.20500   -44.6729u 
    1.20600   -44.6748u 
    1.20700   -44.6768u 
    1.20800   -44.6788u 
    1.20900   -44.6807u 
    1.21000   -44.6827u 
    1.21100   -44.6846u 
    1.21200   -44.6866u 
    1.21300   -44.6885u 
    1.21400   -44.6905u 
    1.21500   -44.6925u 
    1.21600   -44.6944u 
    1.21700   -44.6964u 
    1.21800   -44.6983u 
    1.21900   -44.7003u 
    1.22000   -44.7022u 
    1.22100   -44.7042u 
    1.22200   -44.7062u 
    1.22300   -44.7081u 
    1.22400   -44.7101u 
    1.22500   -44.7120u 
    1.22600   -44.7140u 
    1.22700   -44.7159u 
    1.22800   -44.7179u 
    1.22900   -44.7199u 
    1.23000   -44.7218u 
    1.23100   -44.7238u 
    1.23200   -44.7257u 
    1.23300   -44.7277u 
    1.23400   -44.7296u 
    1.23500   -44.7316u 
    1.23600   -44.7336u 
    1.23700   -44.7355u 
    1.23800   -44.7375u 
    1.23900   -44.7394u 
    1.24000   -44.7414u 
    1.24100   -44.7433u 
    1.24200   -44.7453u 
    1.24300   -44.7473u 
    1.24400   -44.7492u 
    1.24500   -44.7512u 
    1.24600   -44.7531u 
    1.24700   -44.7551u 
    1.24800   -44.7570u 
    1.24900   -44.7590u 
    1.25000   -44.7610u 
    1.25100   -44.7629u 
    1.25200   -44.7649u 
    1.25300   -44.7668u 
    1.25400   -44.7688u 
    1.25500   -44.7707u 
    1.25600   -44.7727u 
    1.25700   -44.7746u 
    1.25800   -44.7766u 
    1.25900   -44.7786u 
    1.26000   -44.7805u 
    1.26100   -44.7825u 
    1.26200   -44.7844u 
    1.26300   -44.7864u 
    1.26400   -44.7883u 
    1.26500   -44.7903u 
    1.26600   -44.7923u 
    1.26700   -44.7942u 
    1.26800   -44.7962u 
    1.26900   -44.7981u 
    1.27000   -44.8001u 
    1.27100   -44.8020u 
    1.27200   -44.8040u 
    1.27300   -44.8060u 
    1.27400   -44.8079u 
    1.27500   -44.8099u 
    1.27600   -44.8118u 
    1.27700   -44.8138u 
    1.27800   -44.8157u 
    1.27900   -44.8177u 
    1.28000   -44.8197u 
    1.28100   -44.8216u 
    1.28200   -44.8236u 
    1.28300   -44.8255u 
    1.28400   -44.8275u 
    1.28500   -44.8294u 
    1.28600   -44.8314u 
    1.28700   -44.8334u 
    1.28800   -44.8353u 
    1.28900   -44.8373u 
    1.29000   -44.8392u 
    1.29100   -44.8412u 
    1.29200   -44.8431u 
    1.29300   -44.8451u 
    1.29400   -44.8471u 
    1.29500   -44.8490u 
    1.29600   -44.8510u 
    1.29700   -44.8529u 
    1.29800   -44.8549u 
    1.29900   -44.8568u 
    1.30000   -44.8588u 
    1.30100   -44.8608u 
    1.30200   -44.8627u 
    1.30300   -44.8647u 
    1.30400   -44.8666u 
    1.30500   -44.8686u 
    1.30600   -44.8705u 
    1.30700   -44.8725u 
    1.30800   -44.8745u 
    1.30900   -44.8764u 
    1.31000   -44.8784u 
    1.31100   -44.8803u 
    1.31200   -44.8823u 
    1.31300   -44.8842u 
    1.31400   -44.8862u 
    1.31500   -44.8882u 
    1.31600   -44.8901u 
    1.31700   -44.8921u 
    1.31800   -44.8940u 
    1.31900   -44.8960u 
    1.32000   -44.8979u 
    1.32100   -44.8999u 
    1.32200   -44.9019u 
    1.32300   -44.9038u 
    1.32400   -44.9058u 
    1.32500   -44.9077u 
    1.32600   -44.9097u 
    1.32700   -44.9116u 
    1.32800   -44.9136u 
    1.32900   -44.9156u 
    1.33000   -44.9175u 
    1.33100   -44.9195u 
    1.33200   -44.9214u 
    1.33300   -44.9234u 
    1.33400   -44.9253u 
    1.33500   -44.9273u 
    1.33600   -44.9293u 
    1.33700   -44.9312u 
    1.33800   -44.9332u 
    1.33900   -44.9351u 
    1.34000   -44.9371u 
    1.34100   -44.9390u 
    1.34200   -44.9410u 
    1.34300   -44.9430u 
    1.34400   -44.9449u 
    1.34500   -44.9469u 
    1.34600   -44.9488u 
    1.34700   -44.9508u 
    1.34800   -44.9527u 
    1.34900   -44.9547u 
    1.35000   -44.9567u 
    1.35100   -44.9586u 
    1.35200   -44.9606u 
    1.35300   -44.9625u 
    1.35400   -44.9645u 
    1.35500   -44.9664u 
    1.35600   -44.9684u 
    1.35700   -44.9703u 
    1.35800   -44.9723u 
    1.35900   -44.9743u 
    1.36000   -44.9762u 
    1.36100   -44.9782u 
    1.36200   -44.9801u 
    1.36300   -44.9821u 
    1.36400   -44.9840u 
    1.36500   -44.9860u 
    1.36600   -44.9880u 
    1.36700   -44.9899u 
    1.36800   -44.9919u 
    1.36900   -44.9938u 
    1.37000   -44.9958u 
    1.37100   -44.9977u 
    1.37200   -44.9997u 
    1.37300   -45.0017u 
    1.37400   -45.0036u 
    1.37500   -45.0056u 
    1.37600   -45.0075u 
    1.37700   -45.0095u 
    1.37800   -45.0114u 
    1.37900   -45.0134u 
    1.38000   -45.0154u 
    1.38100   -45.0173u 
    1.38200   -45.0193u 
    1.38300   -45.0212u 
    1.38400   -45.0232u 
    1.38500   -45.0251u 
    1.38600   -45.0271u 
    1.38700   -45.0291u 
    1.38800   -45.0310u 
    1.38900   -45.0330u 
    1.39000   -45.0349u 
    1.39100   -45.0369u 
    1.39200   -45.0388u 
    1.39300   -45.0408u 
    1.39400   -45.0428u 
    1.39500   -45.0447u 
    1.39600   -45.0467u 
    1.39700   -45.0486u 
    1.39800   -45.0506u 
    1.39900   -45.0525u 
    1.40000   -45.0545u 
    1.40100   -45.0565u 
    1.40200   -45.0584u 
    1.40300   -45.0604u 
    1.40400   -45.0623u 
    1.40500   -45.0643u 
    1.40600   -45.0662u 
    1.40700   -45.0682u 
    1.40800   -45.0702u 
    1.40900   -45.0721u 
    1.41000   -45.0741u 
    1.41100   -45.0760u 
    1.41200   -45.0780u 
    1.41300   -45.0799u 
    1.41400   -45.0819u 
    1.41500   -45.0839u 
    1.41600   -45.0858u 
    1.41700   -45.0878u 
    1.41800   -45.0897u 
    1.41900   -45.0917u 
    1.42000   -45.0936u 
    1.42100   -45.0956u 
    1.42200   -45.0976u 
    1.42300   -45.0995u 
    1.42400   -45.1015u 
    1.42500   -45.1034u 
    1.42600   -45.1054u 
    1.42700   -45.1073u 
    1.42800   -45.1093u 
    1.42900   -45.1113u 
    1.43000   -45.1132u 
    1.43100   -45.1152u 
    1.43200   -45.1171u 
    1.43300   -45.1191u 
    1.43400   -45.1210u 
    1.43500   -45.1230u 
    1.43600   -45.1250u 
    1.43700   -45.1269u 
    1.43800   -45.1289u 
    1.43900   -45.1308u 
    1.44000   -45.1328u 
    1.44100   -45.1347u 
    1.44200   -45.1367u 
    1.44300   -45.1387u 
    1.44400   -45.1406u 
    1.44500   -45.1426u 
    1.44600   -45.1445u 
    1.44700   -45.1465u 
    1.44800   -45.1484u 
    1.44900   -45.1504u 
    1.45000   -45.1524u 
    1.45100   -45.1543u 
    1.45200   -45.1563u 
    1.45300   -45.1582u 
    1.45400   -45.1602u 
    1.45500   -45.1621u 
    1.45600   -45.1641u 
    1.45700   -45.1660u 
    1.45800   -45.1680u 
    1.45900   -45.1700u 
    1.46000   -45.1719u 
    1.46100   -45.1739u 
    1.46200   -45.1758u 
    1.46300   -45.1778u 
    1.46400   -45.1797u 
    1.46500   -45.1817u 
    1.46600   -45.1837u 
    1.46700   -45.1856u 
    1.46800   -45.1876u 
    1.46900   -45.1895u 
    1.47000   -45.1915u 
    1.47100   -45.1934u 
    1.47200   -45.1954u 
    1.47300   -45.1974u 
    1.47400   -45.1993u 
    1.47500   -45.2013u 
    1.47600   -45.2032u 
    1.47700   -45.2052u 
    1.47800   -45.2071u 
    1.47900   -45.2091u 
    1.48000   -45.2111u 
    1.48100   -45.2130u 
    1.48200   -45.2150u 
    1.48300   -45.2169u 
    1.48400   -45.2189u 
    1.48500   -45.2208u 
    1.48600   -45.2228u 
    1.48700   -45.2248u 
    1.48800   -45.2267u 
    1.48900   -45.2287u 
    1.49000   -45.2306u 
    1.49100   -45.2326u 
    1.49200   -45.2345u 
    1.49300   -45.2365u 
    1.49400   -45.2385u 
    1.49500   -45.2404u 
    1.49600   -45.2424u 
    1.49700   -45.2443u 
    1.49800   -45.2463u 
    1.49900   -45.2482u 
    1.50000   -45.2502u 
    1.50100   -45.2522u 
    1.50200   -45.2541u 
    1.50300   -45.2561u 
    1.50400   -45.2580u 
    1.50500   -45.2600u 
    1.50600   -45.2619u 
    1.50700   -45.2639u 
    1.50800   -45.2659u 
    1.50900   -45.2678u 
    1.51000   -45.2698u 
    1.51100   -45.2717u 
    1.51200   -45.2737u 
    1.51300   -45.2756u 
    1.51400   -45.2776u 
    1.51500   -45.2796u 
    1.51600   -45.2815u 
    1.51700   -45.2835u 
    1.51800   -45.2854u 
    1.51900   -45.2874u 
    1.52000   -45.2893u 
    1.52100   -45.2913u 
    1.52200   -45.2933u 
    1.52300   -45.2952u 
    1.52400   -45.2972u 
    1.52500   -45.2991u 
    1.52600   -45.3011u 
    1.52700   -45.3030u 
    1.52800   -45.3050u 
    1.52900   -45.3070u 
    1.53000   -45.3089u 
    1.53100   -45.3109u 
    1.53200   -45.3128u 
    1.53300   -45.3148u 
    1.53400   -45.3167u 
    1.53500   -45.3187u 
    1.53600   -45.3207u 
    1.53700   -45.3226u 
    1.53800   -45.3246u 
    1.53900   -45.3265u 
    1.54000   -45.3285u 
    1.54100   -45.3304u 
    1.54200   -45.3324u 
    1.54300   -45.3344u 
    1.54400   -45.3363u 
    1.54500   -45.3383u 
    1.54600   -45.3402u 
    1.54700   -45.3422u 
    1.54800   -45.3441u 
    1.54900   -45.3461u 
    1.55000   -45.3481u 
    1.55100   -45.3500u 
    1.55200   -45.3520u 
    1.55300   -45.3539u 
    1.55400   -45.3559u 
    1.55500   -45.3578u 
    1.55600   -45.3598u 
    1.55700   -45.3617u 
    1.55800   -45.3637u 
    1.55900   -45.3657u 
    1.56000   -45.3676u 
    1.56100   -45.3696u 
    1.56200   -45.3715u 
    1.56300   -45.3735u 
    1.56400   -45.3754u 
    1.56500   -45.3774u 
    1.56600   -45.3794u 
    1.56700   -45.3813u 
    1.56800   -45.3833u 
    1.56900   -45.3852u 
    1.57000   -45.3872u 
    1.57100   -45.3891u 
    1.57200   -45.3911u 
    1.57300   -45.3931u 
    1.57400   -45.3950u 
    1.57500   -45.3970u 
    1.57600   -45.3989u 
    1.57700   -45.4009u 
    1.57800   -45.4028u 
    1.57900   -45.4048u 
    1.58000   -45.4068u 
    1.58100   -45.4087u 
    1.58200   -45.4107u 
    1.58300   -45.4126u 
    1.58400   -45.4146u 
    1.58500   -45.4165u 
    1.58600   -45.4185u 
    1.58700   -45.4205u 
    1.58800   -45.4224u 
    1.58900   -45.4244u 
    1.59000   -45.4263u 
    1.59100   -45.4283u 
    1.59200   -45.4302u 
    1.59300   -45.4322u 
    1.59400   -45.4342u 
    1.59500   -45.4361u 
    1.59600   -45.4381u 
    1.59700   -45.4400u 
    1.59800   -45.4420u 
    1.59900   -45.4439u 
    1.60000   -45.4459u 
    1.60100   -45.4479u 
    1.60200   -45.4498u 
    1.60300   -45.4518u 
    1.60400   -45.4537u 
    1.60500   -45.4557u 
    1.60600   -45.4576u 
    1.60700   -45.4596u 
    1.60800   -45.4616u 
    1.60900   -45.4635u 
    1.61000   -45.4655u 
    1.61100   -45.4674u 
    1.61200   -45.4694u 
    1.61300   -45.4713u 
    1.61400   -45.4733u 
    1.61500   -45.4753u 
    1.61600   -45.4772u 
    1.61700   -45.4792u 
    1.61800   -45.4811u 
    1.61900   -45.4831u 
    1.62000   -45.4850u 
    1.62100   -45.4870u 
    1.62200   -45.4890u 
    1.62300   -45.4909u 
    1.62400   -45.4929u 
    1.62500   -45.4948u 
    1.62600   -45.4968u 
    1.62700   -45.4987u 
    1.62800   -45.5007u 
    1.62900   -45.5027u 
    1.63000   -45.5046u 
    1.63100   -45.5066u 
    1.63200   -45.5085u 
    1.63300   -45.5105u 
    1.63400   -45.5124u 
    1.63500   -45.5144u 
    1.63600   -45.5164u 
    1.63700   -45.5183u 
    1.63800   -45.5203u 
    1.63900   -45.5222u 
    1.64000   -45.5242u 
    1.64100   -45.5261u 
    1.64200   -45.5281u 
    1.64300   -45.5301u 
    1.64400   -45.5320u 
    1.64500   -45.5340u 
    1.64600   -45.5359u 
    1.64700   -45.5379u 
    1.64800   -45.5398u 
    1.64900   -45.5418u 
    1.65000   -45.5438u 
    1.65100   -45.5457u 
    1.65200   -45.5477u 
    1.65300   -45.5496u 
    1.65400   -45.5516u 
    1.65500   -45.5535u 
    1.65600   -45.5555u 
    1.65700   -45.5574u 
    1.65800   -45.5594u 
    1.65900   -45.5614u 
    1.66000   -45.5633u 
    1.66100   -45.5653u 
    1.66200   -45.5672u 
    1.66300   -45.5692u 
    1.66400   -45.5711u 
    1.66500   -45.5731u 
    1.66600   -45.5751u 
    1.66700   -45.5770u 
    1.66800   -45.5790u 
    1.66900   -45.5809u 
    1.67000   -45.5829u 
    1.67100   -45.5848u 
    1.67200   -45.5868u 
    1.67300   -45.5888u 
    1.67400   -45.5907u 
    1.67500   -45.5927u 
    1.67600   -45.5946u 
    1.67700   -45.5966u 
    1.67800   -45.5985u 
    1.67900   -45.6005u 
    1.68000   -45.6025u 
    1.68100   -45.6044u 
    1.68200   -45.6064u 
    1.68300   -45.6083u 
    1.68400   -45.6103u 
    1.68500   -45.6122u 
    1.68600   -45.6142u 
    1.68700   -45.6162u 
    1.68800   -45.6181u 
    1.68900   -45.6201u 
    1.69000   -45.6220u 
    1.69100   -45.6240u 
    1.69200   -45.6259u 
    1.69300   -45.6279u 
    1.69400   -45.6299u 
    1.69500   -45.6318u 
    1.69600   -45.6338u 
    1.69700   -45.6357u 
    1.69800   -45.6377u 
    1.69900   -45.6396u 
    1.70000   -45.6416u 
    1.70100   -45.6436u 
    1.70200   -45.6455u 
    1.70300   -45.6475u 
    1.70400   -45.6494u 
    1.70500   -45.6514u 
    1.70600   -45.6533u 
    1.70700   -45.6553u 
    1.70800   -45.6573u 
    1.70900   -45.6592u 
    1.71000   -45.6612u 
    1.71100   -45.6631u 
    1.71200   -45.6651u 
    1.71300   -45.6670u 
    1.71400   -45.6690u 
    1.71500   -45.6710u 
    1.71600   -45.6729u 
    1.71700   -45.6749u 
    1.71800   -45.6768u 
    1.71900   -45.6788u 
    1.72000   -45.6807u 
    1.72100   -45.6827u 
    1.72200   -45.6847u 
    1.72300   -45.6866u 
    1.72400   -45.6886u 
    1.72500   -45.6905u 
    1.72600   -45.6925u 
    1.72700   -45.6944u 
    1.72800   -45.6964u 
    1.72900   -45.6984u 
    1.73000   -45.7003u 
    1.73100   -45.7023u 
    1.73200   -45.7042u 
    1.73300   -45.7062u 
    1.73400   -45.7081u 
    1.73500   -45.7101u 
    1.73600   -45.7121u 
    1.73700   -45.7140u 
    1.73800   -45.7160u 
    1.73900   -45.7179u 
    1.74000   -45.7199u 
    1.74100   -45.7218u 
    1.74200   -45.7238u 
    1.74300   -45.7258u 
    1.74400   -45.7277u 
    1.74500   -45.7297u 
    1.74600   -45.7316u 
    1.74700   -45.7336u 
    1.74800   -45.7355u 
    1.74900   -45.7375u 
    1.75000   -45.7395u 
    1.75100   -45.7414u 
    1.75200   -45.7434u 
    1.75300   -45.7453u 
    1.75400   -45.7473u 
    1.75500   -45.7492u 
    1.75600   -45.7512u 
    1.75700   -45.7531u 
    1.75800   -45.7551u 
    1.75900   -45.7571u 
    1.76000   -45.7590u 
    1.76100   -45.7610u 
    1.76200   -45.7629u 
    1.76300   -45.7649u 
    1.76400   -45.7668u 
    1.76500   -45.7688u 
    1.76600   -45.7708u 
    1.76700   -45.7727u 
    1.76800   -45.7747u 
    1.76900   -45.7766u 
    1.77000   -45.7786u 
    1.77100   -45.7805u 
    1.77200   -45.7825u 
    1.77300   -45.7845u 
    1.77400   -45.7864u 
    1.77500   -45.7884u 
    1.77600   -45.7903u 
    1.77700   -45.7923u 
    1.77800   -45.7942u 
    1.77900   -45.7962u 
    1.78000   -45.7982u 
    1.78100   -45.8001u 
    1.78200   -45.8021u 
    1.78300   -45.8040u 
    1.78400   -45.8060u 
    1.78500   -45.8079u 
    1.78600   -45.8099u 
    1.78700   -45.8119u 
    1.78800   -45.8138u 
    1.78900   -45.8158u 
    1.79000   -45.8177u 
    1.79100   -45.8197u 
    1.79200   -45.8216u 
    1.79300   -45.8236u 
    1.79400   -45.8256u 
    1.79500   -45.8275u 
    1.79600   -45.8295u 
    1.79700   -45.8314u 
    1.79800   -45.8334u 
    1.79900   -45.8353u 
    1.80000   -45.8373u 
    1.80100   -45.8393u 
    1.80200   -45.8412u 
    1.80300   -45.8432u 
    1.80400   -45.8451u 
    1.80500   -45.8471u 
    1.80600   -45.8490u 
    1.80700   -45.8510u 
    1.80800   -45.8530u 
    1.80900   -45.8549u 
    1.81000   -45.8569u 
    1.81100   -45.8588u 
    1.81200   -45.8608u 
    1.81300   -45.8627u 
    1.81400   -45.8647u 
    1.81500   -45.8667u 
    1.81600   -45.8686u 
    1.81700   -45.8706u 
    1.81800   -45.8725u 
    1.81900   -45.8745u 
    1.82000   -45.8764u 
    1.82100   -45.8784u 
    1.82200   -45.8804u 
    1.82300   -45.8823u 
    1.82400   -45.8843u 
    1.82500   -45.8862u 
    1.82600   -45.8882u 
    1.82700   -45.8901u 
    1.82800   -45.8921u 
    1.82900   -45.8941u 
    1.83000   -45.8960u 
    1.83100   -45.8980u 
    1.83200   -45.8999u 
    1.83300   -45.9019u 
    1.83400   -45.9038u 
    1.83500   -45.9058u 
    1.83600   -45.9078u 
    1.83700   -45.9097u 
    1.83800   -45.9117u 
    1.83900   -45.9136u 
    1.84000   -45.9156u 
    1.84100   -45.9175u 
    1.84200   -45.9195u 
    1.84300   -45.9215u 
    1.84400   -45.9234u 
    1.84500   -45.9254u 
    1.84600   -45.9273u 
    1.84700   -45.9293u 
    1.84800   -45.9312u 
    1.84900   -45.9332u 
    1.85000   -45.9352u 
    1.85100   -45.9371u 
    1.85200   -45.9391u 
    1.85300   -45.9410u 
    1.85400   -45.9430u 
    1.85500   -45.9449u 
    1.85600   -45.9469u 
    1.85700   -45.9488u 
    1.85800   -45.9508u 
    1.85900   -45.9528u 
    1.86000   -45.9547u 
    1.86100   -45.9567u 
    1.86200   -45.9586u 
    1.86300   -45.9606u 
    1.86400   -45.9625u 
    1.86500   -45.9645u 
    1.86600   -45.9665u 
    1.86700   -45.9684u 
    1.86800   -45.9704u 
    1.86900   -45.9723u 
    1.87000   -45.9743u 
    1.87100   -45.9762u 
    1.87200   -45.9782u 
    1.87300   -45.9802u 
    1.87400   -45.9821u 
    1.87500   -45.9841u 
    1.87600   -45.9860u 
    1.87700   -45.9880u 
    1.87800   -45.9899u 
    1.87900   -45.9919u 
    1.88000   -45.9939u 
    1.88100   -45.9958u 
    1.88200   -45.9978u 
    1.88300   -45.9997u 
    1.88400   -46.0017u 
    1.88500   -46.0036u 
    1.88600   -46.0056u 
    1.88700   -46.0076u 
    1.88800   -46.0095u 
    1.88900   -46.0115u 
    1.89000   -46.0134u 
    1.89100   -46.0154u 
    1.89200   -46.0173u 
    1.89300   -46.0193u 
    1.89400   -46.0213u 
    1.89500   -46.0232u 
    1.89600   -46.0252u 
    1.89700   -46.0271u 
    1.89800   -46.0291u 
    1.89900   -46.0310u 
    1.90000   -46.0330u 
    1.90100   -46.0350u 
    1.90200   -46.0369u 
    1.90300   -46.0389u 
    1.90400   -46.0408u 
    1.90500   -46.0428u 
    1.90600   -46.0447u 
    1.90700   -46.0467u 
    1.90800   -46.0487u 
    1.90900   -46.0506u 
    1.91000   -46.0526u 
    1.91100   -46.0545u 
    1.91200   -46.0565u 
    1.91300   -46.0584u 
    1.91400   -46.0604u 
    1.91500   -46.0624u 
    1.91600   -46.0643u 
    1.91700   -46.0663u 
    1.91800   -46.0682u 
    1.91900   -46.0702u 
    1.92000   -46.0721u 
    1.92100   -46.0741u 
    1.92200   -46.0761u 
    1.92300   -46.0780u 
    1.92400   -46.0800u 
    1.92500   -46.0819u 
    1.92600   -46.0839u 
    1.92700   -46.0858u 
    1.92800   -46.0878u 
    1.92900   -46.0898u 
    1.93000   -46.0917u 
    1.93100   -46.0937u 
    1.93200   -46.0956u 
    1.93300   -46.0976u 
    1.93400   -46.0995u 
    1.93500   -46.1015u 
    1.93600   -46.1035u 
    1.93700   -46.1054u 
    1.93800   -46.1074u 
    1.93900   -46.1093u 
    1.94000   -46.1113u 
    1.94100   -46.1132u 
    1.94200   -46.1152u 
    1.94300   -46.1172u 
    1.94400   -46.1191u 
    1.94500   -46.1211u 
    1.94600   -46.1230u 
    1.94700   -46.1250u 
    1.94800   -46.1269u 
    1.94900   -46.1289u 
    1.95000   -46.1309u 
    1.95100   -46.1328u 
    1.95200   -46.1348u 
    1.95300   -46.1367u 
    1.95400   -46.1387u 
    1.95500   -46.1406u 
    1.95600   -46.1426u 
    1.95700   -46.1445u 
    1.95800   -46.1465u 
    1.95900   -46.1485u 
    1.96000   -46.1504u 
    1.96100   -46.1524u 
    1.96200   -46.1543u 
    1.96300   -46.1563u 
    1.96400   -46.1582u 
    1.96500   -46.1602u 
    1.96600   -46.1622u 
    1.96700   -46.1641u 
    1.96800   -46.1661u 
    1.96900   -46.1680u 
    1.97000   -46.1700u 
    1.97100   -46.1719u 
    1.97200   -46.1739u 
    1.97300   -46.1759u 
    1.97400   -46.1778u 
    1.97500   -46.1798u 
    1.97600   -46.1817u 
    1.97700   -46.1837u 
    1.97800   -46.1856u 
    1.97900   -46.1876u 
    1.98000   -46.1896u 
    1.98100   -46.1915u 
    1.98200   -46.1935u 
    1.98300   -46.1954u 
    1.98400   -46.1974u 
    1.98500   -46.1993u 
    1.98600   -46.2013u 
    1.98700   -46.2033u 
    1.98800   -46.2052u 
    1.98900   -46.2072u 
    1.99000   -46.2091u 
    1.99100   -46.2111u 
    1.99200   -46.2130u 
    1.99300   -46.2150u 
    1.99400   -46.2170u 
    1.99500   -46.2189u 
    1.99600   -46.2209u 
    1.99700   -46.2228u 
    1.99800   -46.2248u 
    1.99900   -46.2267u 
    2.00000   -46.2287u 
y

          ***** job concluded
 ******  
 *mos

 ****** job statistics summary tnom=  25.000 temp=  25.000 ******
  
 ******  Machine Information  ******
 CPU:
 model name	: Intel(R) Xeon(R) CPU           E5620  @ 2.40GHz
 cpu MHz	: 1596.000
  
 OS:
 Linux version 2.6.32-754.6.3.el6.x86_64 (mockbuild@x86-01.bsys.centos.org) (gcc version 4.4.7 20120313 (Red Hat 4.4.7-23) (GCC) ) #1 SMP Tue Oct 9 17:27:49 UTC 2018


  ******  HSPICE Threads Information  ******

  Command Line Threads Count :     1
  Available CPU Count        :    16
  Actual Threads Count       :     1


  ******  Circuit Statistics  ******
  # nodes       =       3 # elements   =       3
  # resistors   =       0 # capacitors =       0 # inductors   =       0
  # mutual_inds =       0 # vccs       =       0 # vcvs        =       0
  # cccs        =       0 # ccvs       =       0 # volt_srcs   =       2
  # curr_srcs   =       0 # diodes     =       0 # bjts        =       0
  # jfets       =       0 # mosfets    =       0 # U elements  =       0
  # T elements  =       0 # W elements =       0 # B elements  =       0
  # S elements  =       0 # P elements =       0 # va device   =       1
  # vector_srcs =       0 # N elements =       0


  ******  Runtime Statistics (seconds)  ******

  analysis           time    # points   tot. iter  conv.iter
  op point           0.00           1           0
  dc sweep           0.13        2001        4003
  readin             2.05
  errchk             0.00
  setup              0.29
  output             0.00


           peak memory used        301.59 megabytes
           total cpu time            2.56 seconds
           total elapsed time        2.72 seconds
           job started at     02:19:16 11/02/2019
           job ended   at     02:19:19 11/02/2019
           job total runtime         2.72 seconds


 lic: Release hspice token(s) 
 lic: total license checkout elapse time:        0.03(s)
