 ****** HSPICE -- P-2019.06-SP1-1 linux64 (Sep 27 2019) ******                  
  Copyright (c) 1986 - 2019 by Synopsys, Inc. All Rights Reserved.              
  This software and the associated documentation are proprietary
  to Synopsys, Inc. This software may only be used in accordance
  with the terms and conditions of a written license agreement with
  Synopsys, Inc. All other use, reproduction, or distribution of
  this software is strictly prohibited.
  Input File: q3.sp                                                             
  Command line options: /usr/local/Software/Hspice/hspice/P-2019.06-SP1-1/hspice/linux64/hspice -i q3.sp -o q3
  Start time: Thu Nov  7 18:16:52 2019
 lic:  
 lic: FLEXlm: SDK_12.3 
 lic: USER:   EE735_6              HOSTNAME: mcl16 
 lic: HOSTID: "001517a3883c"       PID:      29207 
 lic: Using FLEXlm license file: 
 lic: 27020@mcl16 
 lic: Checkout 1 hspice 
 lic: License/Maintenance for hspice will expire on 14-nov-2019/2019.06 
 lic: 1(in_use)/10(total) FLOATING license(s) on SERVER 27020@mcl16 
 lic:   
 **info** *pvaI* current limit stacksize=10485760, set new limit stacksize=62914560

 **info** *pvaI* Module (simple_mos): 4 unexpanded port, 0 init, 5 behav, 2 contrib, 49/3 expr(s)

 **info** *pvaI*        Has DIS(ST), 0/0 afCount, 0 MT, dlg, IO(0/0/1/0)

 **info** *pvaI*        0 gmdIsThreadSafe (ST)

 **info** *pvaI*        0 const-G and 0 const-C, Has switchBranch, 22 bypassOpt, 0 bus2scalar, 0 vwb

 **info** *pvaI*        set_va_exp = 80 [80.0, 704.0] set by default

 **warning** *pvaW*        variable 'P_EPS' declared but not used in RHS, deleted (q3.va:20)

 **warning** *pvaW*                   To relax this rule, use 'setenv PVA_KEEP_VARS 1' to keep variables for probing.

 **warning** *pvaW*        variable 'PHI' declared but not used in RHS, deleted (q3.va:22)

 **warning** *pvaW*        variable 'COX' declared but not used in RHS, deleted (q3.va:22)

 **info** *pvaI*        port 'b' at 4 declared, but not used

 **info** *pvaI*        generated 0 flow node(s) during compilation.

 **info** *pvaI* #### Total 431 line-size(s), 49/3 expr(s), 2 contr(s), 0 init(s), 5 behav(s), 4 port(s)

 Loading pVA library q3.pvadir/pvaRTL_linux64.so...
1****** HSPICE -- P-2019.06-SP1-1 linux64 (Sep 27 2019) ******                  
 ******  
 *mos

 ****** circuit name directory
 circuit number to circuit name directory
   number circuitname                     definition         multiplier
        0 main circuit
        1 x1.                             simple_mos(va)     1.00 
 **info** *pvaI* Creating VA module (simple_mos) for instance X1 with gmd reduction

 **info** *pvaI*        termCount=4 diwSize=8 probeSize=19 Qsize=0 Isize=1

 End of GMD creation on Thu Nov  7 18:16:55 2019	GTM/In-use: 1.8750/0.4506 MB


  
      
 *****************************************************************
 ******  option summary
 ******
 runlvl  = 3         bypass  = 2.0000    
  Opening plot unit= 15
 file=q3.pa0

 End of pVA setup    on Thu Nov  7 18:16:55 2019	GTM/In-use: 1.8750/0.4845 MB


 Begin of pVA simulation on Thu Nov  7 18:16:55 2019	GTM/In-use: 1.8750/0.4845 MB


 ******
 *mos

 ****** dc transfer curves tnom=  25.000 temp=  25.000 ******
x

 volt         current   
             vd         
    0.          0.      
    1.00000m    0.      
    2.00000m    0.      
    3.00000m    0.      
    4.00000m    0.      
    5.00000m    0.      
    6.00000m    0.      
    7.00000m    0.      
    8.00000m    0.      
    9.00000m    0.      
   10.00000m    0.      
   11.00000m    0.      
   12.00000m    0.      
   13.00000m    0.      
   14.00000m    0.      
   15.00000m    0.      
   16.00000m    0.      
   17.00000m    0.      
   18.00000m    0.      
   19.00000m    0.      
   20.00000m    0.      
   21.00000m    0.      
   22.00000m    0.      
   23.00000m    0.      
   24.00000m    0.      
   25.00000m    0.      
   26.00000m    0.      
   27.00000m    0.      
   28.00000m    0.      
   29.00000m    0.      
   30.00000m    0.      
   31.00000m    0.      
   32.00000m    0.      
   33.00000m    0.      
   34.00000m    0.      
   35.00000m    0.      
   36.00000m    0.      
   37.00000m    0.      
   38.00000m    0.      
   39.00000m    0.      
   40.00000m    0.      
   41.00000m    0.      
   42.00000m    0.      
   43.00000m    0.      
   44.00000m    0.      
   45.00000m    0.      
   46.00000m    0.      
   47.00000m    0.      
   48.00000m    0.      
   49.00000m    0.      
   50.00000m    0.      
   51.00000m    0.      
   52.00000m    0.      
   53.00000m    0.      
   54.00000m    0.      
   55.00000m    0.      
   56.00000m    0.      
   57.00000m    0.      
   58.00000m    0.      
   59.00000m    0.      
   60.00000m    0.      
   61.00000m    0.      
   62.00000m    0.      
   63.00000m    0.      
   64.00000m    0.      
   65.00000m    0.      
   66.00000m    0.      
   67.00000m    0.      
   68.00000m    0.      
   69.00000m    0.      
   70.00000m    0.      
   71.00000m    0.      
   72.00000m    0.      
   73.00000m    0.      
   74.00000m    0.      
   75.00000m    0.      
   76.00000m    0.      
   77.00000m    0.      
   78.00000m    0.      
   79.00000m    0.      
   80.00000m    0.      
   81.00000m    0.      
   82.00000m    0.      
   83.00000m    0.      
   84.00000m    0.      
   85.00000m    0.      
   86.00000m    0.      
   87.00000m    0.      
   88.00000m    0.      
   89.00000m    0.      
   90.00000m    0.      
   91.00000m    0.      
   92.00000m    0.      
   93.00000m    0.      
   94.00000m    0.      
   95.00000m    0.      
   96.00000m    0.      
   97.00000m    0.      
   98.00000m    0.      
   99.00000m    0.      
  100.00000m    0.      
  101.00000m    0.      
  102.00000m    0.      
  103.00000m    0.      
  104.00000m    0.      
  105.00000m    0.      
  106.00000m    0.      
  107.00000m    0.      
  108.00000m    0.      
  109.00000m    0.      
  110.00000m    0.      
  111.00000m    0.      
  112.00000m    0.      
  113.00000m    0.      
  114.00000m    0.      
  115.00000m    0.      
  116.00000m    0.      
  117.00000m    0.      
  118.00000m    0.      
  119.00000m    0.      
  120.00000m    0.      
  121.00000m    0.      
  122.00000m    0.      
  123.00000m    0.      
  124.00000m    0.      
  125.00000m    0.      
  126.00000m    0.      
  127.00000m    0.      
  128.00000m    0.      
  129.00000m    0.      
  130.00000m    0.      
  131.00000m    0.      
  132.00000m    0.      
  133.00000m    0.      
  134.00000m    0.      
  135.00000m    0.      
  136.00000m    0.      
  137.00000m    0.      
  138.00000m    0.      
  139.00000m    0.      
  140.00000m    0.      
  141.00000m    0.      
  142.00000m    0.      
  143.00000m    0.      
  144.00000m    0.      
  145.00000m    0.      
  146.00000m    0.      
  147.00000m    0.      
  148.00000m    0.      
  149.00000m    0.      
  150.00000m    0.      
  151.00000m    0.      
  152.00000m    0.      
  153.00000m    0.      
  154.00000m    0.      
  155.00000m    0.      
  156.00000m    0.      
  157.00000m    0.      
  158.00000m    0.      
  159.00000m    0.      
  160.00000m    0.      
  161.00000m    0.      
  162.00000m    0.      
  163.00000m    0.      
  164.00000m    0.      
  165.00000m    0.      
  166.00000m    0.      
  167.00000m    0.      
  168.00000m    0.      
  169.00000m    0.      
  170.00000m    0.      
  171.00000m    0.      
  172.00000m    0.      
  173.00000m    0.      
  174.00000m    0.      
  175.00000m    0.      
  176.00000m    0.      
  177.00000m    0.      
  178.00000m    0.      
  179.00000m    0.      
  180.00000m    0.      
  181.00000m    0.      
  182.00000m    0.      
  183.00000m    0.      
  184.00000m    0.      
  185.00000m    0.      
  186.00000m    0.      
  187.00000m    0.      
  188.00000m    0.      
  189.00000m    0.      
  190.00000m    0.      
  191.00000m    0.      
  192.00000m    0.      
  193.00000m    0.      
  194.00000m    0.      
  195.00000m    0.      
  196.00000m    0.      
  197.00000m    0.      
  198.00000m    0.      
  199.00000m    0.      
  200.00000m    0.      
  201.00000m    0.      
  202.00000m    0.      
  203.00000m    0.      
  204.00000m    0.      
  205.00000m    0.      
  206.00000m    0.      
  207.00000m    0.      
  208.00000m    0.      
  209.00000m    0.      
  210.00000m    0.      
  211.00000m    0.      
  212.00000m    0.      
  213.00000m    0.      
  214.00000m    0.      
  215.00000m    0.      
  216.00000m    0.      
  217.00000m    0.      
  218.00000m    0.      
  219.00000m    0.      
  220.00000m    0.      
  221.00000m    0.      
  222.00000m    0.      
  223.00000m    0.      
  224.00000m    0.      
  225.00000m    0.      
  226.00000m    0.      
  227.00000m    0.      
  228.00000m    0.      
  229.00000m    0.      
  230.00000m    0.      
  231.00000m    0.      
  232.00000m    0.      
  233.00000m    0.      
  234.00000m    0.      
  235.00000m    0.      
  236.00000m    0.      
  237.00000m    0.      
  238.00000m    0.      
  239.00000m    0.      
  240.00000m    0.      
  241.00000m    0.      
  242.00000m    0.      
  243.00000m    0.      
  244.00000m    0.      
  245.00000m    0.      
  246.00000m    0.      
  247.00000m    0.      
  248.00000m    0.      
  249.00000m    0.      
  250.00000m    0.      
  251.00000m    0.      
  252.00000m    0.      
  253.00000m    0.      
  254.00000m    0.      
  255.00000m    0.      
  256.00000m    0.      
  257.00000m    0.      
  258.00000m    0.      
  259.00000m    0.      
  260.00000m    0.      
  261.00000m    0.      
  262.00000m    0.      
  263.00000m    0.      
  264.00000m    0.      
  265.00000m    0.      
  266.00000m    0.      
  267.00000m    0.      
  268.00000m    0.      
  269.00000m    0.      
  270.00000m    0.      
  271.00000m    0.      
  272.00000m    0.      
  273.00000m    0.      
  274.00000m    0.      
  275.00000m    0.      
  276.00000m    0.      
  277.00000m    0.      
  278.00000m    0.      
  279.00000m    0.      
  280.00000m    0.      
  281.00000m    0.      
  282.00000m    0.      
  283.00000m    0.      
  284.00000m    0.      
  285.00000m    0.      
  286.00000m    0.      
  287.00000m    0.      
  288.00000m    0.      
  289.00000m    0.      
  290.00000m    0.      
  291.00000m    0.      
  292.00000m    0.      
  293.00000m    0.      
  294.00000m    0.      
  295.00000m    0.      
  296.00000m    0.      
  297.00000m    0.      
  298.00000m    0.      
  299.00000m    0.      
  300.00000m    0.      
  301.00000m    0.      
  302.00000m    0.      
  303.00000m    0.      
  304.00000m    0.      
  305.00000m    0.      
  306.00000m    0.      
  307.00000m    0.      
  308.00000m    0.      
  309.00000m    0.      
  310.00000m    0.      
  311.00000m    0.      
  312.00000m    0.      
  313.00000m    0.      
  314.00000m    0.      
  315.00000m    0.      
  316.00000m    0.      
  317.00000m    0.      
  318.00000m    0.      
  319.00000m    0.      
  320.00000m    0.      
  321.00000m    0.      
  322.00000m    0.      
  323.00000m    0.      
  324.00000m    0.      
  325.00000m    0.      
  326.00000m    0.      
  327.00000m    0.      
  328.00000m    0.      
  329.00000m    0.      
  330.00000m    0.      
  331.00000m    0.      
  332.00000m    0.      
  333.00000m    0.      
  334.00000m    0.      
  335.00000m    0.      
  336.00000m    0.      
  337.00000m    0.      
  338.00000m    0.      
  339.00000m    0.      
  340.00000m    0.      
  341.00000m    0.      
  342.00000m    0.      
  343.00000m    0.      
  344.00000m    0.      
  345.00000m    0.      
  346.00000m    0.      
  347.00000m    0.      
  348.00000m    0.      
  349.00000m    0.      
  350.00000m    0.      
  351.00000m    0.      
  352.00000m    0.      
  353.00000m    0.      
  354.00000m    0.      
  355.00000m    0.      
  356.00000m    0.      
  357.00000m    0.      
  358.00000m    0.      
  359.00000m    0.      
  360.00000m    0.      
  361.00000m    0.      
  362.00000m    0.      
  363.00000m    0.      
  364.00000m    0.      
  365.00000m    0.      
  366.00000m    0.      
  367.00000m    0.      
  368.00000m    0.      
  369.00000m    0.      
  370.00000m    0.      
  371.00000m    0.      
  372.00000m    0.      
  373.00000m    0.      
  374.00000m    0.      
  375.00000m    0.      
  376.00000m    0.      
  377.00000m    0.      
  378.00000m    0.      
  379.00000m    0.      
  380.00000m    0.      
  381.00000m    0.      
  382.00000m    0.      
  383.00000m    0.      
  384.00000m    0.      
  385.00000m    0.      
  386.00000m    0.      
  387.00000m    0.      
  388.00000m    0.      
  389.00000m    0.      
  390.00000m    0.      
  391.00000m    0.      
  392.00000m    0.      
  393.00000m    0.      
  394.00000m    0.      
  395.00000m    0.      
  396.00000m    0.      
  397.00000m    0.      
  398.00000m    0.      
  399.00000m    0.      
  400.00000m    0.      
  401.00000m    0.      
  402.00000m    0.      
  403.00000m    0.      
  404.00000m    0.      
  405.00000m    0.      
  406.00000m    0.      
  407.00000m    0.      
  408.00000m    0.      
  409.00000m    0.      
  410.00000m    0.      
  411.00000m    0.      
  412.00000m    0.      
  413.00000m    0.      
  414.00000m    0.      
  415.00000m    0.      
  416.00000m    0.      
  417.00000m    0.      
  418.00000m    0.      
  419.00000m    0.      
  420.00000m    0.      
  421.00000m    0.      
  422.00000m    0.      
  423.00000m    0.      
  424.00000m    0.      
  425.00000m    0.      
  426.00000m    0.      
  427.00000m    0.      
  428.00000m    0.      
  429.00000m    0.      
  430.00000m    0.      
  431.00000m    0.      
  432.00000m    0.      
  433.00000m    0.      
  434.00000m    0.      
  435.00000m    0.      
  436.00000m    0.      
  437.00000m    0.      
  438.00000m    0.      
  439.00000m    0.      
  440.00000m    0.      
  441.00000m    0.      
  442.00000m    0.      
  443.00000m    0.      
  444.00000m    0.      
  445.00000m    0.      
  446.00000m    0.      
  447.00000m    0.      
  448.00000m    0.      
  449.00000m    0.      
  450.00000m    0.      
  451.00000m    0.      
  452.00000m    0.      
  453.00000m    0.      
  454.00000m    0.      
  455.00000m    0.      
  456.00000m    0.      
  457.00000m    0.      
  458.00000m    0.      
  459.00000m    0.      
  460.00000m    0.      
  461.00000m    0.      
  462.00000m    0.      
  463.00000m    0.      
  464.00000m    0.      
  465.00000m    0.      
  466.00000m    0.      
  467.00000m    0.      
  468.00000m    0.      
  469.00000m    0.      
  470.00000m    0.      
  471.00000m    0.      
  472.00000m    0.      
  473.00000m    0.      
  474.00000m    0.      
  475.00000m    0.      
  476.00000m    0.      
  477.00000m    0.      
  478.00000m    0.      
  479.00000m    0.      
  480.00000m    0.      
  481.00000m    0.      
  482.00000m    0.      
  483.00000m    0.      
  484.00000m    0.      
  485.00000m    0.      
  486.00000m    0.      
  487.00000m    0.      
  488.00000m    0.      
  489.00000m    0.      
  490.00000m    0.      
  491.00000m    0.      
  492.00000m    0.      
  493.00000m    0.      
  494.00000m    0.      
  495.00000m    0.      
  496.00000m    0.      
  497.00000m    0.      
  498.00000m    0.      
  499.00000m    0.      
  500.00000m    0.      
  501.00000m    0.      
  502.00000m    0.      
  503.00000m    0.      
  504.00000m    0.      
  505.00000m    0.      
  506.00000m    0.      
  507.00000m    0.      
  508.00000m    0.      
  509.00000m    0.      
  510.00000m    0.      
  511.00000m    0.      
  512.00000m    0.      
  513.00000m    0.      
  514.00000m    0.      
  515.00000m    0.      
  516.00000m    0.      
  517.00000m    0.      
  518.00000m    0.      
  519.00000m    0.      
  520.00000m    0.      
  521.00000m    0.      
  522.00000m    0.      
  523.00000m    0.      
  524.00000m    0.      
  525.00000m    0.      
  526.00000m    0.      
  527.00000m    0.      
  528.00000m    0.      
  529.00000m    0.      
  530.00000m    0.      
  531.00000m    0.      
  532.00000m    0.      
  533.00000m    0.      
  534.00000m    0.      
  535.00000m    0.      
  536.00000m    0.      
  537.00000m    0.      
  538.00000m    0.      
  539.00000m    0.      
  540.00000m    0.      
  541.00000m    0.      
  542.00000m    0.      
  543.00000m    0.      
  544.00000m    0.      
  545.00000m    0.      
  546.00000m    0.      
  547.00000m    0.      
  548.00000m    0.      
  549.00000m    0.      
  550.00000m    0.      
  551.00000m    0.      
  552.00000m    0.      
  553.00000m    0.      
  554.00000m    0.      
  555.00000m    0.      
  556.00000m    0.      
  557.00000m    0.      
  558.00000m    0.      
  559.00000m    0.      
  560.00000m    0.      
  561.00000m    0.      
  562.00000m    0.      
  563.00000m    0.      
  564.00000m    0.      
  565.00000m    0.      
  566.00000m    0.      
  567.00000m    0.      
  568.00000m    0.      
  569.00000m    0.      
  570.00000m    0.      
  571.00000m    0.      
  572.00000m    0.      
  573.00000m    0.      
  574.00000m    0.      
  575.00000m    0.      
  576.00000m    0.      
  577.00000m    0.      
  578.00000m    0.      
  579.00000m    0.      
  580.00000m    0.      
  581.00000m    0.      
  582.00000m    0.      
  583.00000m    0.      
  584.00000m    0.      
  585.00000m    0.      
  586.00000m    0.      
  587.00000m    0.      
  588.00000m    0.      
  589.00000m    0.      
  590.00000m    0.      
  591.00000m    0.      
  592.00000m    0.      
  593.00000m    0.      
  594.00000m    0.      
  595.00000m    0.      
  596.00000m    0.      
  597.00000m    0.      
  598.00000m    0.      
  599.00000m    0.      
  600.00000m    0.      
  601.00000m    0.      
  602.00000m    0.      
  603.00000m    0.      
  604.00000m    0.      
  605.00000m    0.      
  606.00000m    0.      
  607.00000m    0.      
  608.00000m    0.      
  609.00000m    0.      
  610.00000m    0.      
  611.00000m    0.      
  612.00000m    0.      
  613.00000m    0.      
  614.00000m    0.      
  615.00000m    0.      
  616.00000m    0.      
  617.00000m    0.      
  618.00000m    0.      
  619.00000m    0.      
  620.00000m    0.      
  621.00000m    0.      
  622.00000m    0.      
  623.00000m    0.      
  624.00000m    0.      
  625.00000m    0.      
  626.00000m    0.      
  627.00000m    0.      
  628.00000m    0.      
  629.00000m    0.      
  630.00000m    0.      
  631.00000m    0.      
  632.00000m    0.      
  633.00000m    0.      
  634.00000m    0.      
  635.00000m    0.      
  636.00000m    0.      
  637.00000m    0.      
  638.00000m    0.      
  639.00000m    0.      
  640.00000m    0.      
  641.00000m    0.      
  642.00000m    0.      
  643.00000m    0.      
  644.00000m    0.      
  645.00000m    0.      
  646.00000m    0.      
  647.00000m    0.      
  648.00000m    0.      
  649.00000m    0.      
  650.00000m    0.      
  651.00000m    0.      
  652.00000m    0.      
  653.00000m    0.      
  654.00000m    0.      
  655.00000m  -30.5356p 
  656.00000m -272.8086p 
  657.00000m -756.6867p 
  658.00000m   -1.4822n 
  659.00000m   -2.4493n 
  660.00000m   -3.6580n 
  661.00000m   -5.1082n 
  662.00000m   -6.8002n 
  663.00000m   -8.7337n 
  664.00000m  -10.9088n 
  665.00000m  -13.3255n 
  666.00000m  -15.9838n 
  667.00000m  -18.8837n 
  668.00000m  -22.0253n 
  669.00000m  -25.4084n 
  670.00000m  -29.0332n 
  671.00000m  -32.8995n 
  672.00000m  -37.0075n 
  673.00000m  -41.3570n 
  674.00000m  -45.9482n 
  675.00000m  -50.7809n 
  676.00000m  -55.8553n 
  677.00000m  -61.1713n 
  678.00000m  -66.7289n 
  679.00000m  -72.5281n 
  680.00000m  -78.5689n 
  681.00000m  -84.8513n 
  682.00000m  -91.3753n 
  683.00000m  -98.1409n 
  684.00000m -105.1481n 
  685.00000m -112.3969n 
  686.00000m -119.8873n 
  687.00000m -127.6194n 
  688.00000m -135.5930n 
  689.00000m -143.8082n 
  690.00000m -152.2651n 
  691.00000m -160.9635n 
  692.00000m -169.9036n 
  693.00000m -179.0852n 
  694.00000m -188.5085n 
  695.00000m -198.1734n 
  696.00000m -208.0798n 
  697.00000m -218.2279n 
  698.00000m -228.6176n 
  699.00000m -239.2489n 
  700.00000m -250.1218n 
  701.00000m -261.2363n 
  702.00000m -272.5924n 
  703.00000m -284.1901n 
  704.00000m -296.0294n 
  705.00000m -308.1103n 
  706.00000m -320.4328n 
  707.00000m -332.9970n 
  708.00000m -345.8027n 
  709.00000m -358.8500n 
  710.00000m -372.1390n 
  711.00000m -385.6695n 
  712.00000m -399.4417n 
  713.00000m -413.4554n 
  714.00000m -427.7108n 
  715.00000m -442.2078n 
  716.00000m -456.9463n 
  717.00000m -471.9265n 
  718.00000m -487.1483n 
  719.00000m -502.6117n 
  720.00000m -518.3167n 
  721.00000m -534.2633n 
  722.00000m -550.4515n 
  723.00000m -566.8813n 
  724.00000m -583.5527n 
  725.00000m -600.4657n 
  726.00000m -617.6203n 
  727.00000m -635.0166n 
  728.00000m -652.6544n 
  729.00000m -670.5338n 
  730.00000m -688.6549n 
  731.00000m -707.0175n 
  732.00000m -725.6218n 
  733.00000m -744.4676n 
  734.00000m -763.5551n 
  735.00000m -782.8842n 
  736.00000m -802.4549n 
  737.00000m -822.2671n 
  738.00000m -842.3210n 
  739.00000m -862.6165n 
  740.00000m -883.1536n 
  741.00000m -903.9323n 
  742.00000m -924.9526n 
  743.00000m -946.2145n 
  744.00000m -967.7180n 
  745.00000m -989.4631n 
  746.00000m   -1.0114u 
  747.00000m   -1.0337u 
  748.00000m   -1.0561u 
  749.00000m   -1.0789u 
  750.00000m   -1.1018u 
  751.00000m   -1.1250u 
  752.00000m   -1.1484u 
  753.00000m   -1.1721u 
  754.00000m   -1.1960u 
  755.00000m   -1.2202u 
  756.00000m   -1.2446u 
  757.00000m   -1.2692u 
  758.00000m   -1.2941u 
  759.00000m   -1.3193u 
  760.00000m   -1.3446u 
  761.00000m   -1.3702u 
  762.00000m   -1.3961u 
  763.00000m   -1.4222u 
  764.00000m   -1.4485u 
  765.00000m   -1.4751u 
  766.00000m   -1.5019u 
  767.00000m   -1.5290u 
  768.00000m   -1.5563u 
  769.00000m   -1.5838u 
  770.00000m   -1.6116u 
  771.00000m   -1.6396u 
  772.00000m   -1.6679u 
  773.00000m   -1.6964u 
  774.00000m   -1.7252u 
  775.00000m   -1.7542u 
  776.00000m   -1.7834u 
  777.00000m   -1.8129u 
  778.00000m   -1.8426u 
  779.00000m   -1.8726u 
  780.00000m   -1.9028u 
  781.00000m   -1.9332u 
  782.00000m   -1.9639u 
  783.00000m   -1.9948u 
  784.00000m   -2.0260u 
  785.00000m   -2.0574u 
  786.00000m   -2.0890u 
  787.00000m   -2.1209u 
  788.00000m   -2.1531u 
  789.00000m   -2.1854u 
  790.00000m   -2.2181u 
  791.00000m   -2.2509u 
  792.00000m   -2.2840u 
  793.00000m   -2.3174u 
  794.00000m   -2.3509u 
  795.00000m   -2.3848u 
  796.00000m   -2.4188u 
  797.00000m   -2.4531u 
  798.00000m   -2.4877u 
  799.00000m   -2.5225u 
  800.00000m   -2.5575u 
  801.00000m   -2.5928u 
  802.00000m   -2.6283u 
  803.00000m   -2.6641u 
  804.00000m   -2.7001u 
  805.00000m   -2.7363u 
  806.00000m   -2.7728u 
  807.00000m   -2.8095u 
  808.00000m   -2.8465u 
  809.00000m   -2.8837u 
  810.00000m   -2.9211u 
  811.00000m   -2.9588u 
  812.00000m   -2.9968u 
  813.00000m   -3.0349u 
  814.00000m   -3.0734u 
  815.00000m   -3.1120u 
  816.00000m   -3.1509u 
  817.00000m   -3.1900u 
  818.00000m   -3.2294u 
  819.00000m   -3.2691u 
  820.00000m   -3.3089u 
  821.00000m   -3.3490u 
  822.00000m   -3.3894u 
  823.00000m   -3.4300u 
  824.00000m   -3.4708u 
  825.00000m   -3.5119u 
  826.00000m   -3.5532u 
  827.00000m   -3.5947u 
  828.00000m   -3.6365u 
  829.00000m   -3.6786u 
  830.00000m   -3.7209u 
  831.00000m   -3.7634u 
  832.00000m   -3.8062u 
  833.00000m   -3.8492u 
  834.00000m   -3.8924u 
  835.00000m   -3.9359u 
  836.00000m   -3.9796u 
  837.00000m   -4.0236u 
  838.00000m   -4.0678u 
  839.00000m   -4.1123u 
  840.00000m   -4.1570u 
  841.00000m   -4.2019u 
  842.00000m   -4.2471u 
  843.00000m   -4.2925u 
  844.00000m   -4.3382u 
  845.00000m   -4.3841u 
  846.00000m   -4.4302u 
  847.00000m   -4.4766u 
  848.00000m   -4.5232u 
  849.00000m   -4.5701u 
  850.00000m   -4.6172u 
  851.00000m   -4.6646u 
  852.00000m   -4.7122u 
  853.00000m   -4.7600u 
  854.00000m   -4.8081u 
  855.00000m   -4.8564u 
  856.00000m   -4.9050u 
  857.00000m   -4.9538u 
  858.00000m   -5.0028u 
  859.00000m   -5.0521u 
  860.00000m   -5.1017u 
  861.00000m   -5.1514u 
  862.00000m   -5.2014u 
  863.00000m   -5.2517u 
  864.00000m   -5.3022u 
  865.00000m   -5.3529u 
  866.00000m   -5.4039u 
  867.00000m   -5.4551u 
  868.00000m   -5.5066u 
  869.00000m   -5.5583u 
  870.00000m   -5.6102u 
  871.00000m   -5.6624u 
  872.00000m   -5.7149u 
  873.00000m   -5.7675u 
  874.00000m   -5.8204u 
  875.00000m   -5.8736u 
  876.00000m   -5.9270u 
  877.00000m   -5.9806u 
  878.00000m   -6.0345u 
  879.00000m   -6.0886u 
  880.00000m   -6.1430u 
  881.00000m   -6.1976u 
  882.00000m   -6.2524u 
  883.00000m   -6.3075u 
  884.00000m   -6.3629u 
  885.00000m   -6.4184u 
  886.00000m   -6.4742u 
  887.00000m   -6.5303u 
  888.00000m   -6.5866u 
  889.00000m   -6.6431u 
  890.00000m   -6.6999u 
  891.00000m   -6.7569u 
  892.00000m   -6.8142u 
  893.00000m   -6.8717u 
  894.00000m   -6.9294u 
  895.00000m   -6.9874u 
  896.00000m   -7.0456u 
  897.00000m   -7.1041u 
  898.00000m   -7.1628u 
  899.00000m   -7.2218u 
  900.00000m   -7.2810u 
  901.00000m   -7.3404u 
  902.00000m   -7.4001u 
  903.00000m   -7.4600u 
  904.00000m   -7.5202u 
  905.00000m   -7.5806u 
  906.00000m   -7.6412u 
  907.00000m   -7.7021u 
  908.00000m   -7.7632u 
  909.00000m   -7.8246u 
  910.00000m   -7.8862u 
  911.00000m   -7.9480u 
  912.00000m   -8.0101u 
  913.00000m   -8.0725u 
  914.00000m   -8.1350u 
  915.00000m   -8.1979u 
  916.00000m   -8.2609u 
  917.00000m   -8.3242u 
  918.00000m   -8.3878u 
  919.00000m   -8.4515u 
  920.00000m   -8.5156u 
  921.00000m   -8.5798u 
  922.00000m   -8.6444u 
  923.00000m   -8.7091u 
  924.00000m   -8.7741u 
  925.00000m   -8.8393u 
  926.00000m   -8.9048u 
  927.00000m   -8.9705u 
  928.00000m   -9.0365u 
  929.00000m   -9.1027u 
  930.00000m   -9.1691u 
  931.00000m   -9.2358u 
  932.00000m   -9.3027u 
  933.00000m   -9.3699u 
  934.00000m   -9.4373u 
  935.00000m   -9.5050u 
  936.00000m   -9.5728u 
  937.00000m   -9.6410u 
  938.00000m   -9.7094u 
  939.00000m   -9.7780u 
  940.00000m   -9.8468u 
  941.00000m   -9.9159u 
  942.00000m   -9.9853u 
  943.00000m  -10.0549u 
  944.00000m  -10.1247u 
  945.00000m  -10.1947u 
  946.00000m  -10.2651u 
  947.00000m  -10.3356u 
  948.00000m  -10.4064u 
  949.00000m  -10.4774u 
  950.00000m  -10.5487u 
  951.00000m  -10.6202u 
  952.00000m  -10.6920u 
  953.00000m  -10.7640u 
  954.00000m  -10.8362u 
  955.00000m  -10.9087u 
  956.00000m  -10.9814u 
  957.00000m  -11.0544u 
  958.00000m  -11.1276u 
  959.00000m  -11.2010u 
  960.00000m  -11.2747u 
  961.00000m  -11.3487u 
  962.00000m  -11.4228u 
  963.00000m  -11.4973u 
  964.00000m  -11.5719u 
  965.00000m  -11.6468u 
  966.00000m  -11.7219u 
  967.00000m  -11.7973u 
  968.00000m  -11.8730u 
  969.00000m  -11.9488u 
  970.00000m  -12.0249u 
  971.00000m  -12.1013u 
  972.00000m  -12.1779u 
  973.00000m  -12.2547u 
  974.00000m  -12.3318u 
  975.00000m  -12.4091u 
  976.00000m  -12.4866u 
  977.00000m  -12.5644u 
  978.00000m  -12.6425u 
  979.00000m  -12.7208u 
  980.00000m  -12.7993u 
  981.00000m  -12.8780u 
  982.00000m  -12.9570u 
  983.00000m  -13.0363u 
  984.00000m  -13.1158u 
  985.00000m  -13.1955u 
  986.00000m  -13.2755u 
  987.00000m  -13.3557u 
  988.00000m  -13.4361u 
  989.00000m  -13.5168u 
  990.00000m  -13.5978u 
  991.00000m  -13.6790u 
  992.00000m  -13.7604u 
  993.00000m  -13.8420u 
  994.00000m  -13.9240u 
  995.00000m  -14.0061u 
  996.00000m  -14.0885u 
  997.00000m  -14.1711u 
  998.00000m  -14.2540u 
  999.00000m  -14.3371u 
    1.00000   -14.4205u 
    1.00100   -14.5041u 
    1.00200   -14.5879u 
    1.00300   -14.6720u 
    1.00400   -14.7563u 
    1.00500   -14.8409u 
    1.00600   -14.9257u 
    1.00700   -15.0107u 
    1.00800   -15.0960u 
    1.00900   -15.1815u 
    1.01000   -15.2673u 
    1.01100   -15.3533u 
    1.01200   -15.4396u 
    1.01300   -15.5260u 
    1.01400   -15.6128u 
    1.01500   -15.6998u 
    1.01600   -15.7870u 
    1.01700   -15.8744u 
    1.01800   -15.9621u 
    1.01900   -16.0501u 
    1.02000   -16.1383u 
    1.02100   -16.2267u 
    1.02200   -16.3154u 
    1.02300   -16.4043u 
    1.02400   -16.4934u 
    1.02500   -16.5828u 
    1.02600   -16.6725u 
    1.02700   -16.7624u 
    1.02800   -16.8525u 
    1.02900   -16.9428u 
    1.03000   -17.0334u 
    1.03100   -17.1243u 
    1.03200   -17.2154u 
    1.03300   -17.3067u 
    1.03400   -17.3983u 
    1.03500   -17.4901u 
    1.03600   -17.5821u 
    1.03700   -17.6744u 
    1.03800   -17.7670u 
    1.03900   -17.8597u 
    1.04000   -17.9527u 
    1.04100   -18.0460u 
    1.04200   -18.1395u 
    1.04300   -18.2333u 
    1.04400   -18.3272u 
    1.04500   -18.4215u 
    1.04600   -18.5159u 
    1.04700   -18.6106u 
    1.04800   -18.7056u 
    1.04900   -18.8008u 
    1.05000   -18.8962u 
    1.05100   -18.9919u 
    1.05200   -19.0878u 
    1.05300   -19.1840u 
    1.05400   -19.2804u 
    1.05500   -19.3770u 
    1.05600   -19.4739u 
    1.05700   -19.5710u 
    1.05800   -19.6684u 
    1.05900   -19.7660u 
    1.06000   -19.8639u 
    1.06100   -19.9619u 
    1.06200   -20.0603u 
    1.06300   -20.1589u 
    1.06400   -20.2577u 
    1.06500   -20.3567u 
    1.06600   -20.4560u 
    1.06700   -20.5556u 
    1.06800   -20.6554u 
    1.06900   -20.7554u 
    1.07000   -20.8557u 
    1.07100   -20.9562u 
    1.07200   -21.0569u 
    1.07300   -21.1579u 
    1.07400   -21.2591u 
    1.07500   -21.3606u 
    1.07600   -21.4623u 
    1.07700   -21.5643u 
    1.07800   -21.6665u 
    1.07900   -21.7689u 
    1.08000   -21.8716u 
    1.08100   -21.9745u 
    1.08200   -22.0777u 
    1.08300   -22.1811u 
    1.08400   -22.2848u 
    1.08500   -22.3886u 
    1.08600   -22.4928u 
    1.08700   -22.5972u 
    1.08800   -22.7018u 
    1.08900   -22.8066u 
    1.09000   -22.9117u 
    1.09100   -23.0171u 
    1.09200   -23.1226u 
    1.09300   -23.2285u 
    1.09400   -23.3345u 
    1.09500   -23.4408u 
    1.09600   -23.5474u 
    1.09700   -23.6542u 
    1.09800   -23.7612u 
    1.09900   -23.8685u 
    1.10000   -23.9760u 
    1.10100   -24.0838u 
    1.10200   -24.1918u 
    1.10300   -24.3000u 
    1.10400   -24.4085u 
    1.10500   -24.5172u 
    1.10600   -24.6262u 
    1.10700   -24.7354u 
    1.10800   -24.8448u 
    1.10900   -24.9545u 
    1.11000   -25.0644u 
    1.11100   -25.1746u 
    1.11200   -25.2850u 
    1.11300   -25.3957u 
    1.11400   -25.5066u 
    1.11500   -25.6177u 
    1.11600   -25.7291u 
    1.11700   -25.8407u 
    1.11800   -25.9526u 
    1.11900   -26.0647u 
    1.12000   -26.1770u 
    1.12100   -26.2896u 
    1.12200   -26.4025u 
    1.12300   -26.5155u 
    1.12400   -26.6288u 
    1.12500   -26.7424u 
    1.12600   -26.8562u 
    1.12700   -26.9702u 
    1.12800   -27.0845u 
    1.12900   -27.1990u 
    1.13000   -27.3138u 
    1.13100   -27.4288u 
    1.13200   -27.5440u 
    1.13300   -27.6595u 
    1.13400   -27.7753u 
    1.13500   -27.8912u 
    1.13600   -28.0074u 
    1.13700   -28.1239u 
    1.13800   -28.2406u 
    1.13900   -28.3575u 
    1.14000   -28.4747u 
    1.14100   -28.5921u 
    1.14200   -28.7098u 
    1.14300   -28.8277u 
    1.14400   -28.9458u 
    1.14500   -29.0642u 
    1.14600   -29.1829u 
    1.14700   -29.3017u 
    1.14800   -29.4208u 
    1.14900   -29.5402u 
    1.15000   -29.6598u 
    1.15100   -29.7796u 
    1.15200   -29.8997u 
    1.15300   -30.0200u 
    1.15400   -30.1406u 
    1.15500   -30.2614u 
    1.15600   -30.3824u 
    1.15700   -30.5037u 
    1.15800   -30.6252u 
    1.15900   -30.7470u 
    1.16000   -30.8690u 
    1.16100   -30.9913u 
    1.16200   -31.1138u 
    1.16300   -31.2365u 
    1.16400   -31.3595u 
    1.16500   -31.4827u 
    1.16600   -31.6062u 
    1.16700   -31.7299u 
    1.16800   -31.8538u 
    1.16900   -31.9780u 
    1.17000   -32.1024u 
    1.17100   -32.2271u 
    1.17200   -32.3520u 
    1.17300   -32.4772u 
    1.17400   -32.6026u 
    1.17500   -32.7282u 
    1.17600   -32.8541u 
    1.17700   -32.9802u 
    1.17800   -33.1065u 
    1.17900   -33.2331u 
    1.18000   -33.3600u 
    1.18100   -33.4871u 
    1.18200   -33.6144u 
    1.18300   -33.7420u 
    1.18400   -33.8698u 
    1.18500   -33.9978u 
    1.18600   -34.1261u 
    1.18700   -34.2547u 
    1.18800   -34.3834u 
    1.18900   -34.5125u 
    1.19000   -34.6417u 
    1.19100   -34.7712u 
    1.19200   -34.9010u 
    1.19300   -35.0309u 
    1.19400   -35.1612u 
    1.19500   -35.2916u 
    1.19600   -35.4223u 
    1.19700   -35.5533u 
    1.19800   -35.6845u 
    1.19900   -35.8159u 
    1.20000   -35.9476u 
    1.20100   -36.0795u 
    1.20200   -36.2117u 
    1.20300   -36.3441u 
    1.20400   -36.4767u 
    1.20500   -36.6096u 
    1.20600   -36.7427u 
    1.20700   -36.8761u 
    1.20800   -37.0097u 
    1.20900   -37.1435u 
    1.21000   -37.2776u 
    1.21100   -37.4120u 
    1.21200   -37.5465u 
    1.21300   -37.6814u 
    1.21400   -37.8164u 
    1.21500   -37.9517u 
    1.21600   -38.0873u 
    1.21700   -38.2230u 
    1.21800   -38.3591u 
    1.21900   -38.4953u 
    1.22000   -38.6318u 
    1.22100   -38.7686u 
    1.22200   -38.9056u 
    1.22300   -39.0428u 
    1.22400   -39.1803u 
    1.22500   -39.3180u 
    1.22600   -39.4560u 
    1.22700   -39.5942u 
    1.22800   -39.7326u 
    1.22900   -39.8713u 
    1.23000   -40.0102u 
    1.23100   -40.1494u 
    1.23200   -40.2888u 
    1.23300   -40.4284u 
    1.23400   -40.5683u 
    1.23500   -40.7084u 
    1.23600   -40.8488u 
    1.23700   -40.9894u 
    1.23800   -41.1303u 
    1.23900   -41.2714u 
    1.24000   -41.4127u 
    1.24100   -41.5543u 
    1.24200   -41.6961u 
    1.24300   -41.8382u 
    1.24400   -41.9805u 
    1.24500   -42.1230u 
    1.24600   -42.2658u 
    1.24700   -42.4089u 
    1.24800   -42.5521u 
    1.24900   -42.6957u 
    1.25000   -42.8394u 
    1.25100   -42.9834u 
    1.25200   -43.1276u 
    1.25300   -43.2721u 
    1.25400   -43.4168u 
    1.25500   -43.5618u 
    1.25600   -43.7070u 
    1.25700   -43.8525u 
    1.25800   -43.9982u 
    1.25900   -44.1441u 
    1.26000   -44.2903u 
    1.26100   -44.4367u 
    1.26200   -44.5833u 
    1.26300   -44.7302u 
    1.26400   -44.8774u 
    1.26500   -45.0247u 
    1.26600   -45.1724u 
    1.26700   -45.3202u 
    1.26800   -45.4683u 
    1.26900   -45.6167u 
    1.27000   -45.7653u 
    1.27100   -45.9141u 
    1.27200   -46.0632u 
    1.27300   -46.2125u 
    1.27400   -46.3620u 
    1.27500   -46.5118u 
    1.27600   -46.6619u 
    1.27700   -46.8121u 
    1.27800   -46.9627u 
    1.27900   -47.1134u 
    1.28000   -47.2644u 
    1.28100   -47.4157u 
    1.28200   -47.5672u 
    1.28300   -47.7189u 
    1.28400   -47.8709u 
    1.28500   -48.0231u 
    1.28600   -48.1755u 
    1.28700   -48.3282u 
    1.28800   -48.4812u 
    1.28900   -48.6343u 
    1.29000   -48.7878u 
    1.29100   -48.9414u 
    1.29200   -49.0953u 
    1.29300   -49.2495u 
    1.29400   -49.4038u 
    1.29500   -49.5585u 
    1.29600   -49.7133u 
    1.29700   -49.8685u 
    1.29800   -50.0238u 
    1.29900   -50.1794u 
    1.30000   -50.3352u 
    1.30100   -50.4913u 
    1.30200   -50.6476u 
    1.30300   -50.8042u 
    1.30400   -50.9610u 
    1.30500   -51.1180u 
    1.30600   -51.2753u 
    1.30700   -51.4329u 
    1.30800   -51.5906u 
    1.30900   -51.7486u 
    1.31000   -51.9069u 
    1.31100   -52.0654u 
    1.31200   -52.2241u 
    1.31300   -52.3831u 
    1.31400   -52.5423u 
    1.31500   -52.7018u 
    1.31600   -52.8615u 
    1.31700   -53.0214u 
    1.31800   -53.1816u 
    1.31900   -53.3420u 
    1.32000   -53.5027u 
    1.32100   -53.6636u 
    1.32200   -53.8248u 
    1.32300   -53.9861u 
    1.32400   -54.1478u 
    1.32500   -54.3097u 
    1.32600   -54.4718u 
    1.32700   -54.6341u 
    1.32800   -54.7967u 
    1.32900   -54.9596u 
    1.33000   -55.1227u 
    1.33100   -55.2860u 
    1.33200   -55.4496u 
    1.33300   -55.6134u 
    1.33400   -55.7774u 
    1.33500   -55.9417u 
    1.33600   -56.1062u 
    1.33700   -56.2710u 
    1.33800   -56.4360u 
    1.33900   -56.6013u 
    1.34000   -56.7668u 
    1.34100   -56.9325u 
    1.34200   -57.0985u 
    1.34300   -57.2647u 
    1.34400   -57.4312u 
    1.34500   -57.5979u 
    1.34600   -57.7649u 
    1.34700   -57.9321u 
    1.34800   -58.0995u 
    1.34900   -58.2672u 
    1.35000   -58.4351u 
    1.35100   -58.6032u 
    1.35200   -58.7716u 
    1.35300   -58.9403u 
    1.35400   -59.1092u 
    1.35500   -59.2783u 
    1.35600   -59.4477u 
    1.35700   -59.6173u 
    1.35800   -59.7871u 
    1.35900   -59.9572u 
    1.36000   -60.1275u 
    1.36100   -60.2981u 
    1.36200   -60.4689u 
    1.36300   -60.6400u 
    1.36400   -60.8113u 
    1.36500   -60.9828u 
    1.36600   -61.1546u 
    1.36700   -61.3266u 
    1.36800   -61.4989u 
    1.36900   -61.6714u 
    1.37000   -61.8441u 
    1.37100   -62.0171u 
    1.37200   -62.1904u 
    1.37300   -62.3638u 
    1.37400   -62.5375u 
    1.37500   -62.7115u 
    1.37600   -62.8857u 
    1.37700   -63.0601u 
    1.37800   -63.2348u 
    1.37900   -63.4097u 
    1.38000   -63.5849u 
    1.38100   -63.7603u 
    1.38200   -63.9360u 
    1.38300   -64.1119u 
    1.38400   -64.2880u 
    1.38500   -64.4644u 
    1.38600   -64.6410u 
    1.38700   -64.8178u 
    1.38800   -64.9949u 
    1.38900   -65.1723u 
    1.39000   -65.3498u 
    1.39100   -65.5277u 
    1.39200   -65.7057u 
    1.39300   -65.8840u 
    1.39400   -66.0626u 
    1.39500   -66.2414u 
    1.39600   -66.4204u 
    1.39700   -66.5997u 
    1.39800   -66.7792u 
    1.39900   -66.9589u 
    1.40000   -67.1389u 
    1.40100   -67.3192u 
    1.40200   -67.4997u 
    1.40300   -67.6804u 
    1.40400   -67.8613u 
    1.40500   -68.0425u 
    1.40600   -68.2240u 
    1.40700   -68.4057u 
    1.40800   -68.5876u 
    1.40900   -68.7698u 
    1.41000   -68.9522u 
    1.41100   -69.1348u 
    1.41200   -69.3177u 
    1.41300   -69.5009u 
    1.41400   -69.6843u 
    1.41500   -69.8679u 
    1.41600   -70.0517u 
    1.41700   -70.2358u 
    1.41800   -70.4202u 
    1.41900   -70.6048u 
    1.42000   -70.7896u 
    1.42100   -70.9747u 
    1.42200   -71.1600u 
    1.42300   -71.3455u 
    1.42400   -71.5313u 
    1.42500   -71.7174u 
    1.42600   -71.9036u 
    1.42700   -72.0902u 
    1.42800   -72.2769u 
    1.42900   -72.4639u 
    1.43000   -72.6512u 
    1.43100   -72.8387u 
    1.43200   -73.0264u 
    1.43300   -73.2144u 
    1.43400   -73.4026u 
    1.43500   -73.5910u 
    1.43600   -73.7797u 
    1.43700   -73.9686u 
    1.43800   -74.1578u 
    1.43900   -74.3472u 
    1.44000   -74.5369u 
    1.44100   -74.7268u 
    1.44200   -74.9170u 
    1.44300   -75.1073u 
    1.44400   -75.2980u 
    1.44500   -75.4888u 
    1.44600   -75.6799u 
    1.44700   -75.8713u 
    1.44800   -76.0629u 
    1.44900   -76.2547u 
    1.45000   -76.4468u 
    1.45100   -76.6391u 
    1.45200   -76.8317u 
    1.45300   -77.0245u 
    1.45400   -77.2175u 
    1.45500   -77.4108u 
    1.45600   -77.6043u 
    1.45700   -77.7981u 
    1.45800   -77.9921u 
    1.45900   -78.1864u 
    1.46000   -78.3809u 
    1.46100   -78.5756u 
    1.46200   -78.7706u 
    1.46300   -78.9658u 
    1.46400   -79.1612u 
    1.46500   -79.3569u 
    1.46600   -79.5529u 
    1.46700   -79.7491u 
    1.46800   -79.9455u 
    1.46900   -80.1422u 
    1.47000   -80.3391u 
    1.47100   -80.5362u 
    1.47200   -80.7336u 
    1.47300   -80.9312u 
    1.47400   -81.1291u 
    1.47500   -81.3272u 
    1.47600   -81.5256u 
    1.47700   -81.7242u 
    1.47800   -81.9230u 
    1.47900   -82.1221u 
    1.48000   -82.3214u 
    1.48100   -82.5210u 
    1.48200   -82.7208u 
    1.48300   -82.9209u 
    1.48400   -83.1212u 
    1.48500   -83.3217u 
    1.48600   -83.5225u 
    1.48700   -83.7235u 
    1.48800   -83.9247u 
    1.48900   -84.1262u 
    1.49000   -84.3280u 
    1.49100   -84.5300u 
    1.49200   -84.7322u 
    1.49300   -84.9347u 
    1.49400   -85.1374u 
    1.49500   -85.3403u 
    1.49600   -85.5435u 
    1.49700   -85.7469u 
    1.49800   -85.9506u 
    1.49900   -86.1545u 
    1.50000   -86.3587u 
    1.50100   -86.5631u 
    1.50200   -86.7677u 
    1.50300   -86.9726u 
    1.50400   -87.1777u 
    1.50500   -87.3831u 
    1.50600   -87.5887u 
    1.50700   -87.7945u 
    1.50800   -88.0006u 
    1.50900   -88.2070u 
    1.51000   -88.4135u 
    1.51100   -88.6203u 
    1.51200   -88.8274u 
    1.51300   -89.0347u 
    1.51400   -89.2422u 
    1.51500   -89.4500u 
    1.51600   -89.6580u 
    1.51700   -89.8663u 
    1.51800   -90.0748u 
    1.51900   -90.2836u 
    1.52000   -90.4926u 
    1.52100   -90.7018u 
    1.52200   -90.9113u 
    1.52300   -91.1210u 
    1.52400   -91.3309u 
    1.52500   -91.5411u 
    1.52600   -91.7516u 
    1.52700   -91.9622u 
    1.52800   -92.1732u 
    1.52900   -92.3843u 
    1.53000   -92.5957u 
    1.53100   -92.8074u 
    1.53200   -93.0193u 
    1.53300   -93.2314u 
    1.53400   -93.4438u 
    1.53500   -93.6564u 
    1.53600   -93.8692u 
    1.53700   -94.0823u 
    1.53800   -94.2957u 
    1.53900   -94.5092u 
    1.54000   -94.7231u 
    1.54100   -94.9371u 
    1.54200   -95.1514u 
    1.54300   -95.3660u 
    1.54400   -95.5808u 
    1.54500   -95.7958u 
    1.54600   -96.0111u 
    1.54700   -96.2266u 
    1.54800   -96.4423u 
    1.54900   -96.6583u 
    1.55000   -96.8746u 
    1.55100   -97.0910u 
    1.55200   -97.3078u 
    1.55300   -97.5247u 
    1.55400   -97.7419u 
    1.55500   -97.9594u 
    1.55600   -98.1771u 
    1.55700   -98.3950u 
    1.55800   -98.6132u 
    1.55900   -98.8316u 
    1.56000   -99.0502u 
    1.56100   -99.2691u 
    1.56200   -99.4883u 
    1.56300   -99.7076u 
    1.56400   -99.9273u 
    1.56500  -100.1471u 
    1.56600  -100.3672u 
    1.56700  -100.5876u 
    1.56800  -100.8082u 
    1.56900  -101.0290u 
    1.57000  -101.2500u 
    1.57100  -101.4714u 
    1.57200  -101.6929u 
    1.57300  -101.9147u 
    1.57400  -102.1367u 
    1.57500  -102.3590u 
    1.57600  -102.5815u 
    1.57700  -102.8043u 
    1.57800  -103.0273u 
    1.57900  -103.2505u 
    1.58000  -103.4740u 
    1.58100  -103.6978u 
    1.58200  -103.9217u 
    1.58300  -104.1459u 
    1.58400  -104.3704u 
    1.58500  -104.5951u 
    1.58600  -104.8200u 
    1.58700  -105.0452u 
    1.58800  -105.2706u 
    1.58900  -105.4963u 
    1.59000  -105.7222u 
    1.59100  -105.9483u 
    1.59200  -106.1747u 
    1.59300  -106.4013u 
    1.59400  -106.6282u 
    1.59500  -106.8553u 
    1.59600  -107.0827u 
    1.59700  -107.3102u 
    1.59800  -107.5381u 
    1.59900  -107.7662u 
    1.60000  -107.9945u 
    1.60100  -108.2230u 
    1.60200  -108.4518u 
    1.60300  -108.6809u 
    1.60400  -108.9102u 
    1.60500  -109.1397u 
    1.60600  -109.3695u 
    1.60700  -109.5995u 
    1.60800  -109.8297u 
    1.60900  -110.0602u 
    1.61000  -110.2909u 
    1.61100  -110.5219u 
    1.61200  -110.7531u 
    1.61300  -110.9846u 
    1.61400  -111.2163u 
    1.61500  -111.4482u 
    1.61600  -111.6804u 
    1.61700  -111.9128u 
    1.61800  -112.1455u 
    1.61900  -112.3784u 
    1.62000  -112.6116u 
    1.62100  -112.8449u 
    1.62200  -113.0786u 
    1.62300  -113.3125u 
    1.62400  -113.5466u 
    1.62500  -113.7809u 
    1.62600  -114.0155u 
    1.62700  -114.2504u 
    1.62800  -114.4855u 
    1.62900  -114.7208u 
    1.63000  -114.9563u 
    1.63100  -115.1921u 
    1.63200  -115.4282u 
    1.63300  -115.6645u 
    1.63400  -115.9010u 
    1.63500  -116.1378u 
    1.63600  -116.3748u 
    1.63700  -116.6121u 
    1.63800  -116.8496u 
    1.63900  -117.0873u 
    1.64000  -117.3253u 
    1.64100  -117.5635u 
    1.64200  -117.8020u 
    1.64300  -118.0407u 
    1.64400  -118.2796u 
    1.64500  -118.5188u 
    1.64600  -118.7582u 
    1.64700  -118.9979u 
    1.64800  -119.2378u 
    1.64900  -119.4780u 
    1.65000  -119.7184u 
    1.65100  -119.9590u 
    1.65200  -120.1999u 
    1.65300  -120.4410u 
    1.65400  -120.6824u 
    1.65500  -120.9240u 
    1.65600  -121.1656u 
    1.65700  -121.4072u 
    1.65800  -121.6488u 
    1.65900  -121.8904u 
    1.66000  -122.1320u 
    1.66100  -122.3736u 
    1.66200  -122.6152u 
    1.66300  -122.8568u 
    1.66400  -123.0984u 
    1.66500  -123.3400u 
    1.66600  -123.5816u 
    1.66700  -123.8232u 
    1.66800  -124.0648u 
    1.66900  -124.3064u 
    1.67000  -124.5480u 
    1.67100  -124.7897u 
    1.67200  -125.0313u 
    1.67300  -125.2729u 
    1.67400  -125.5145u 
    1.67500  -125.7561u 
    1.67600  -125.9977u 
    1.67700  -126.2393u 
    1.67800  -126.4809u 
    1.67900  -126.7225u 
    1.68000  -126.9641u 
    1.68100  -127.2057u 
    1.68200  -127.4473u 
    1.68300  -127.6889u 
    1.68400  -127.9305u 
    1.68500  -128.1721u 
    1.68600  -128.4137u 
    1.68700  -128.6553u 
    1.68800  -128.8969u 
    1.68900  -129.1385u 
    1.69000  -129.3801u 
    1.69100  -129.6218u 
    1.69200  -129.8634u 
    1.69300  -130.1050u 
    1.69400  -130.3466u 
    1.69500  -130.5882u 
    1.69600  -130.8298u 
    1.69700  -131.0714u 
    1.69800  -131.3130u 
    1.69900  -131.5546u 
    1.70000  -131.7962u 
    1.70100  -132.0378u 
    1.70200  -132.2794u 
    1.70300  -132.5210u 
    1.70400  -132.7626u 
    1.70500  -133.0042u 
    1.70600  -133.2458u 
    1.70700  -133.4874u 
    1.70800  -133.7290u 
    1.70900  -133.9706u 
    1.71000  -134.2122u 
    1.71100  -134.4539u 
    1.71200  -134.6955u 
    1.71300  -134.9371u 
    1.71400  -135.1787u 
    1.71500  -135.4203u 
    1.71600  -135.6619u 
    1.71700  -135.9035u 
    1.71800  -136.1451u 
    1.71900  -136.3867u 
    1.72000  -136.6283u 
    1.72100  -136.8699u 
    1.72200  -137.1115u 
    1.72300  -137.3531u 
    1.72400  -137.5947u 
    1.72500  -137.8363u 
    1.72600  -138.0779u 
    1.72700  -138.3195u 
    1.72800  -138.5611u 
    1.72900  -138.8027u 
    1.73000  -139.0443u 
    1.73100  -139.2860u 
    1.73200  -139.5276u 
    1.73300  -139.7692u 
    1.73400  -140.0108u 
    1.73500  -140.2524u 
    1.73600  -140.4940u 
    1.73700  -140.7356u 
    1.73800  -140.9772u 
    1.73900  -141.2188u 
    1.74000  -141.4604u 
    1.74100  -141.7020u 
    1.74200  -141.9436u 
    1.74300  -142.1852u 
    1.74400  -142.4268u 
    1.74500  -142.6684u 
    1.74600  -142.9100u 
    1.74700  -143.1516u 
    1.74800  -143.3932u 
    1.74900  -143.6348u 
    1.75000  -143.8764u 
    1.75100  -144.1181u 
    1.75200  -144.3597u 
    1.75300  -144.6013u 
    1.75400  -144.8429u 
    1.75500  -145.0845u 
    1.75600  -145.3261u 
    1.75700  -145.5677u 
    1.75800  -145.8093u 
    1.75900  -146.0509u 
    1.76000  -146.2925u 
    1.76100  -146.5341u 
    1.76200  -146.7757u 
    1.76300  -147.0173u 
    1.76400  -147.2589u 
    1.76500  -147.5005u 
    1.76600  -147.7421u 
    1.76700  -147.9837u 
    1.76800  -148.2253u 
    1.76900  -148.4669u 
    1.77000  -148.7085u 
    1.77100  -148.9502u 
    1.77200  -149.1918u 
    1.77300  -149.4334u 
    1.77400  -149.6750u 
    1.77500  -149.9166u 
    1.77600  -150.1582u 
    1.77700  -150.3998u 
    1.77800  -150.6414u 
    1.77900  -150.8830u 
    1.78000  -151.1246u 
    1.78100  -151.3662u 
    1.78200  -151.6078u 
    1.78300  -151.8494u 
    1.78400  -152.0910u 
    1.78500  -152.3326u 
    1.78600  -152.5742u 
    1.78700  -152.8158u 
    1.78800  -153.0574u 
    1.78900  -153.2990u 
    1.79000  -153.5406u 
    1.79100  -153.7823u 
    1.79200  -154.0239u 
    1.79300  -154.2655u 
    1.79400  -154.5071u 
    1.79500  -154.7487u 
    1.79600  -154.9903u 
    1.79700  -155.2319u 
    1.79800  -155.4735u 
    1.79900  -155.7151u 
    1.80000  -155.9567u 
    1.80100  -156.1983u 
    1.80200  -156.4399u 
    1.80300  -156.6815u 
    1.80400  -156.9231u 
    1.80500  -157.1647u 
    1.80600  -157.4063u 
    1.80700  -157.6479u 
    1.80800  -157.8895u 
    1.80900  -158.1311u 
    1.81000  -158.3727u 
    1.81100  -158.6144u 
    1.81200  -158.8560u 
    1.81300  -159.0976u 
    1.81400  -159.3392u 
    1.81500  -159.5808u 
    1.81600  -159.8224u 
    1.81700  -160.0640u 
    1.81800  -160.3056u 
    1.81900  -160.5472u 
    1.82000  -160.7888u 
    1.82100  -161.0304u 
    1.82200  -161.2720u 
    1.82300  -161.5136u 
    1.82400  -161.7552u 
    1.82500  -161.9968u 
    1.82600  -162.2384u 
    1.82700  -162.4800u 
    1.82800  -162.7216u 
    1.82900  -162.9632u 
    1.83000  -163.2048u 
    1.83100  -163.4465u 
    1.83200  -163.6881u 
    1.83300  -163.9297u 
    1.83400  -164.1713u 
    1.83500  -164.4129u 
    1.83600  -164.6545u 
    1.83700  -164.8961u 
    1.83800  -165.1377u 
    1.83900  -165.3793u 
    1.84000  -165.6209u 
    1.84100  -165.8625u 
    1.84200  -166.1041u 
    1.84300  -166.3457u 
    1.84400  -166.5873u 
    1.84500  -166.8289u 
    1.84600  -167.0705u 
    1.84700  -167.3121u 
    1.84800  -167.5537u 
    1.84900  -167.7953u 
    1.85000  -168.0369u 
    1.85100  -168.2786u 
    1.85200  -168.5202u 
    1.85300  -168.7618u 
    1.85400  -169.0034u 
    1.85500  -169.2450u 
    1.85600  -169.4866u 
    1.85700  -169.7282u 
    1.85800  -169.9698u 
    1.85900  -170.2114u 
    1.86000  -170.4530u 
    1.86100  -170.6946u 
    1.86200  -170.9362u 
    1.86300  -171.1778u 
    1.86400  -171.4194u 
    1.86500  -171.6610u 
    1.86600  -171.9026u 
    1.86700  -172.1442u 
    1.86800  -172.3858u 
    1.86900  -172.6274u 
    1.87000  -172.8690u 
    1.87100  -173.1107u 
    1.87200  -173.3523u 
    1.87300  -173.5939u 
    1.87400  -173.8355u 
    1.87500  -174.0771u 
    1.87600  -174.3187u 
    1.87700  -174.5603u 
    1.87800  -174.8019u 
    1.87900  -175.0435u 
    1.88000  -175.2851u 
    1.88100  -175.5267u 
    1.88200  -175.7683u 
    1.88300  -176.0099u 
    1.88400  -176.2515u 
    1.88500  -176.4931u 
    1.88600  -176.7347u 
    1.88700  -176.9763u 
    1.88800  -177.2179u 
    1.88900  -177.4595u 
    1.89000  -177.7011u 
    1.89100  -177.9428u 
    1.89200  -178.1844u 
    1.89300  -178.4260u 
    1.89400  -178.6676u 
    1.89500  -178.9092u 
    1.89600  -179.1508u 
    1.89700  -179.3924u 
    1.89800  -179.6340u 
    1.89900  -179.8756u 
    1.90000  -180.1172u 
    1.90100  -180.3588u 
    1.90200  -180.6004u 
    1.90300  -180.8420u 
    1.90400  -181.0836u 
    1.90500  -181.3252u 
    1.90600  -181.5668u 
    1.90700  -181.8084u 
    1.90800  -182.0500u 
    1.90900  -182.2916u 
    1.91000  -182.5332u 
    1.91100  -182.7749u 
    1.91200  -183.0165u 
    1.91300  -183.2581u 
    1.91400  -183.4997u 
    1.91500  -183.7413u 
    1.91600  -183.9829u 
    1.91700  -184.2245u 
    1.91800  -184.4661u 
    1.91900  -184.7077u 
    1.92000  -184.9493u 
    1.92100  -185.1909u 
    1.92200  -185.4325u 
    1.92300  -185.6741u 
    1.92400  -185.9157u 
    1.92500  -186.1573u 
    1.92600  -186.3989u 
    1.92700  -186.6405u 
    1.92800  -186.8821u 
    1.92900  -187.1237u 
    1.93000  -187.3653u 
    1.93100  -187.6070u 
    1.93200  -187.8486u 
    1.93300  -188.0902u 
    1.93400  -188.3318u 
    1.93500  -188.5734u 
    1.93600  -188.8150u 
    1.93700  -189.0566u 
    1.93800  -189.2982u 
    1.93900  -189.5398u 
    1.94000  -189.7814u 
    1.94100  -190.0230u 
    1.94200  -190.2646u 
    1.94300  -190.5062u 
    1.94400  -190.7478u 
    1.94500  -190.9894u 
    1.94600  -191.2310u 
    1.94700  -191.4726u 
    1.94800  -191.7142u 
    1.94900  -191.9558u 
    1.95000  -192.1974u 
    1.95100  -192.4391u 
    1.95200  -192.6807u 
    1.95300  -192.9223u 
    1.95400  -193.1639u 
    1.95500  -193.4055u 
    1.95600  -193.6471u 
    1.95700  -193.8887u 
    1.95800  -194.1303u 
    1.95900  -194.3719u 
    1.96000  -194.6135u 
    1.96100  -194.8551u 
    1.96200  -195.0967u 
    1.96300  -195.3383u 
    1.96400  -195.5799u 
    1.96500  -195.8215u 
    1.96600  -196.0631u 
    1.96700  -196.3047u 
    1.96800  -196.5463u 
    1.96900  -196.7879u 
    1.97000  -197.0295u 
    1.97100  -197.2712u 
    1.97200  -197.5128u 
    1.97300  -197.7544u 
    1.97400  -197.9960u 
    1.97500  -198.2376u 
    1.97600  -198.4792u 
    1.97700  -198.7208u 
    1.97800  -198.9624u 
    1.97900  -199.2040u 
    1.98000  -199.4456u 
    1.98100  -199.6872u 
    1.98200  -199.9288u 
    1.98300  -200.1704u 
    1.98400  -200.4120u 
    1.98500  -200.6536u 
    1.98600  -200.8952u 
    1.98700  -201.1368u 
    1.98800  -201.3784u 
    1.98900  -201.6200u 
    1.99000  -201.8616u 
    1.99100  -202.1033u 
    1.99200  -202.3449u 
    1.99300  -202.5865u 
    1.99400  -202.8281u 
    1.99500  -203.0697u 
    1.99600  -203.3113u 
    1.99700  -203.5529u 
    1.99800  -203.7945u 
    1.99900  -204.0361u 
    2.00000  -204.2777u 
y

          ***** job concluded
 ******  
 *mos

 ****** job statistics summary tnom=  25.000 temp=  25.000 ******
  
 ******  Machine Information  ******
 CPU:
 model name	: Intel(R) Xeon(R) CPU           E5620  @ 2.40GHz
 cpu MHz	: 1596.000
  
 OS:
 Linux version 2.6.32-754.6.3.el6.x86_64 (mockbuild@x86-01.bsys.centos.org) (gcc version 4.4.7 20120313 (Red Hat 4.4.7-23) (GCC) ) #1 SMP Tue Oct 9 17:27:49 UTC 2018


  ******  HSPICE Threads Information  ******

  Command Line Threads Count :     1
  Available CPU Count        :    16
  Actual Threads Count       :     1


  ******  Circuit Statistics  ******
  # nodes       =       3 # elements   =       3
  # resistors   =       0 # capacitors =       0 # inductors   =       0
  # mutual_inds =       0 # vccs       =       0 # vcvs        =       0
  # cccs        =       0 # ccvs       =       0 # volt_srcs   =       2
  # curr_srcs   =       0 # diodes     =       0 # bjts        =       0
  # jfets       =       0 # mosfets    =       0 # U elements  =       0
  # T elements  =       0 # W elements =       0 # B elements  =       0
  # S elements  =       0 # P elements =       0 # va device   =       1
  # vector_srcs =       0 # N elements =       0


  ******  Runtime Statistics (seconds)  ******

  analysis           time    # points   tot. iter  conv.iter
  op point           0.00           1           0
  dc sweep           0.14        2001        4003
  readin             2.62
  errchk             0.00
  setup              0.27
  output             0.00


           peak memory used        301.59 megabytes
           total cpu time            3.11 seconds
           total elapsed time        3.21 seconds
           job started at     18:16:52 11/07/2019
           job ended   at     18:16:55 11/07/2019
           job total runtime         3.21 seconds


 lic: Release hspice token(s) 
 lic: total license checkout elapse time:        0.03(s)
